
     RDKit          3D

 43 45  0  0  0  0  0  0  0  0999 V2000
   12.5950   16.0160  -11.1250 C   0  0  0  0  0  0  0  0  0  0  0  0
   12.1250   15.6590  -12.3560 C   0  0  0  0  0  0  0  0  0  0  0  0
   10.0740   13.2270  -17.8140 N   0  0  0  0  0  0  0  0  0  0  0  0
   11.2540   15.2480  -15.2680 C   0  0  2  0  0  0  0  0  0  0  0  0
   11.0390   13.7270  -15.5460 C   0  0  0  0  0  0  0  0  0  0  0  0
   10.0760   14.1390  -16.6980 C   0  0  1  0  0  0  0  0  0  0  0  0
    7.5630   13.5100  -18.7910 C   0  0  0  0  0  0  0  0  0  0  0  0
    6.8210   14.8560  -18.9610 C   0  0  0  0  0  0  0  0  0  0  0  0
    5.3140   14.7530  -18.6690 C   0  0  0  0  0  0  0  0  0  0  0  0
   13.7560   15.4550  -15.7550 C   0  0  0  0  0  0  0  0  0  0  0  0
   10.8980   14.9230  -12.1470 C   0  0  0  0  0  0  0  0  0  0  0  0
   10.6740   14.8920  -10.7840 C   0  0  0  0  0  0  0  0  0  0  0  0
    9.6010   12.4600  -20.1300 O   0  0  0  0  0  0  0  0  0  0  0  0
    9.3030   13.5760  -19.2350 S   0  0  0  0  0  0  0  0  0  0  0  0
    9.7000   14.9320  -19.6040 O   0  0  0  0  0  0  0  0  0  0  0  0
   10.8890   15.4710  -16.7800 C   0  0  0  0  0  0  0  0  0  0  0  0
   12.5980   15.6260  -14.8350 N   0  0  0  0  0  0  0  0  0  0  0  0
   12.8890   15.9860  -13.4900 C   0  0  0  0  0  0  0  0  0  0  0  0
   14.0260   16.6740  -13.3390 N   0  0  0  0  0  0  0  0  0  0  0  0
   11.7330   15.5720  -10.1460 N   0  0  0  0  0  0  0  0  0  0  0  0
   13.7360   16.6840  -10.9670 N   0  0  0  0  0  0  0  0  0  0  0  0
   14.3950   16.9820  -12.0950 C   0  0  0  0  0  0  0  0  0  0  0  0
   11.0210   13.0460  -18.1440 H   0  0  0  0  0  0  0  0  0  0  0  0
   10.4820   15.6860  -14.6270 H   0  0  0  0  0  0  0  0  0  0  0  0
   11.9340   13.1940  -15.8810 H   0  0  0  0  0  0  0  0  0  0  0  0
   10.5840   13.1460  -14.7370 H   0  0  0  0  0  0  0  0  0  0  0  0
    9.0520   14.2910  -16.3430 H   0  0  0  0  0  0  0  0  0  0  0  0
    7.5170   13.1550  -17.7540 H   0  0  0  0  0  0  0  0  0  0  0  0
    7.1330   12.7450  -19.4500 H   0  0  0  0  0  0  0  0  0  0  0  0
    7.2710   15.6170  -18.3130 H   0  0  0  0  0  0  0  0  0  0  0  0
    6.9540   15.2000  -19.9940 H   0  0  0  0  0  0  0  0  0  0  0  0
    5.1450   14.4410  -17.6310 H   0  0  0  0  0  0  0  0  0  0  0  0
    4.8240   15.7210  -18.8250 H   0  0  0  0  0  0  0  0  0  0  0  0
    4.8410   14.0190  -19.3320 H   0  0  0  0  0  0  0  0  0  0  0  0
   14.6510   15.1150  -15.2200 H   0  0  0  0  0  0  0  0  0  0  0  0
   13.5510   14.6950  -16.5190 H   0  0  0  0  0  0  0  0  0  0  0  0
   13.9810   16.4050  -16.2550 H   0  0  0  0  0  0  0  0  0  0  0  0
   10.2450   14.4500  -12.8720 H   0  0  0  0  0  0  0  0  0  0  0  0
    9.8620   14.4400  -10.2300 H   0  0  0  0  0  0  0  0  0  0  0  0
   11.7200   15.4420  -17.4910 H   0  0  0  0  0  0  0  0  0  0  0  0
   10.2970   16.3690  -16.9870 H   0  0  0  0  0  0  0  0  0  0  0  0
   11.8490   15.7280   -9.1560 H   0  0  0  0  0  0  0  0  0  0  0  0
   15.3250   17.5370  -11.9880 H   0  0  0  0  0  0  0  0  0  0  0  0
  2  1  1  0
  5  4  1  0
  6  3  1  0
  6  5  1  0
  8  7  1  0
  9  8  1  0
 11  2  1  0
 12 11  2  0
 14 13  2  0
 14  7  1  0
 14  3  1  0
 15 14  2  0
 16  6  1  0
 16  4  1  0
 17 10  1  0
 17  4  1  0
 18 17  1  0
 18  2  2  0
 19 18  1  0
 20 12  1  0
 20  1  1  0
 21  1  2  0
 22 21  1  0
 22 19  2  0
 23  3  1  0
  4 24  1  1
 25  5  1  0
 26  5  1  0
  6 27  1  1
 28  7  1  0
 29  7  1  0
 30  8  1  0
 31  8  1  0
 32  9  1  0
 33  9  1  0
 34  9  1  0
 35 10  1  0
 36 10  1  0
 37 10  1  0
 38 11  1  0
 39 12  1  0
 40 16  1  0
 41 16  1  0
 42 20  1  0
 43 22  1  0
M  END
$$$$
