1277_1_placement
     RDKit          3D

 24 26  0  0  0  0  0  0  0  0999 V2000
    9.2820   14.3288  -17.6773 C   0  0  1  0  0  0  0  0  0  0  0  0
    9.7916   15.0933  -16.4342 C   0  0  0  0  0  0  0  0  0  0  0  0
   10.9330   14.0452  -16.3514 C   0  0  2  0  0  0  0  0  0  0  0  0
    9.9706   13.0772  -17.0840 C   0  0  0  0  0  0  0  0  0  0  0  0
    7.7978   14.2645  -17.8704 N   0  0  0  0  0  0  0  0  0  0  0  0
    7.4767   13.4571  -17.3362 H   0  0  0  0  0  0  0  0  0  0  0  0
    7.0878   14.1285  -19.4043 S   0  0  0  0  0  0  0  0  0  0  0  0
    5.8018   14.7856  -19.3555 O   0  0  0  0  0  0  0  0  0  0  0  0
    8.1197   14.5208  -20.3379 O   0  0  0  0  0  0  0  0  0  0  0  0
    6.8573   12.3572  -19.4962 C   0  0  0  0  0  0  0  0  0  0  0  0
    7.3237   11.1535  -21.6938 C   0  0  0  0  0  0  0  0  0  0  0  0
    7.8902   11.6634  -20.3777 C   0  0  0  0  0  0  0  0  0  0  0  0
   11.2308   13.6301  -14.9949 N   0  0  0  0  0  0  0  0  0  0  0  0
   12.1845   12.5144  -14.9057 C   0  0  0  0  0  0  0  0  0  0  0  0
   11.6078   14.6198  -14.0444 C   0  0  0  0  0  0  0  0  0  0  0  0
   10.9047   14.7329  -12.8851 N   0  0  0  0  0  0  0  0  0  0  0  0
   11.2695   15.6677  -11.9865 C   0  0  0  0  0  0  0  0  0  0  0  0
   12.2836   16.5439  -12.0650 N   0  0  0  0  0  0  0  0  0  0  0  0
   12.9724   16.3848  -13.2031 C   0  0  0  0  0  0  0  0  0  0  0  0
   14.0749   17.1171  -13.5498 N   0  0  0  0  0  0  0  0  0  0  0  0
   14.5555   16.6869  -14.7600 C   0  0  0  0  0  0  0  0  0  0  0  0
   13.7391   15.6631  -15.1934 C   0  0  0  0  0  0  0  0  0  0  0  0
   12.7175   15.4736  -14.2166 C   0  0  0  0  0  0  0  0  0  0  0  0
   14.4645   17.8435  -13.0115 H   0  0  0  0  0  0  0  0  0  0  0  0
 11 12  1  0
 12 10  1  0
 10  7  1  0
  7  8  2  0
  7  9  2  0
  7  5  1  0
  1  5  1  1
  1  2  1  0
  2  3  1  0
  3 13  1  1
 13 14  1  0
 13 15  1  0
 15 16  1  0
 16 17  2  0
 17 18  1  0
 18 19  2  0
 19 20  1  0
 20 21  1  0
 21 22  2  0
 22 23  1  0
  3  4  1  0
  4  1  1  0
 23 15  2  0
 23 19  1  0
  5  6  1  0
 20 24  1  0
M  END
>  <Parent OID>  (1) 
1277

>  <minimizedAffinity>  (1) 
-7.44060

>  <CNNscore>  (1) 
0.6983990669

>  <CNNaffinity>  (1) 
6.3483443260

>  <CNN_VS>  (1) 
4.4336776733

>  <CNNaffinity_variance>  (1) 
0.0033090450

>  <poseStage>  (1) 
placement

>  <crystalRef>  (1) 
6bbu_fixed_protonated_minimized_smina_ligand.sdf

$$$$
1277_1_minimized
     RDKit          3D

 24 26  0  0  0  0  0  0  0  0999 V2000
    8.8598   14.2474  -17.7811 C   0  0  1  0  0  0  0  0  0  0  0  0
    9.2209   15.0101  -16.4860 C   0  0  0  0  0  0  0  0  0  0  0  0
   10.4551   14.0766  -16.3703 C   0  0  2  0  0  0  0  0  0  0  0  0
    9.6364   13.0476  -17.1893 C   0  0  0  0  0  0  0  0  0  0  0  0
    7.4025   14.0453  -18.0631 N   0  0  0  0  0  0  0  0  0  0  0  0
    7.0989   13.2835  -17.4566 H   0  0  0  0  0  0  0  0  0  0  0  0
    6.8213   13.6755  -19.6126 S   0  0  0  0  0  0  0  0  0  0  0  0
    5.4654   14.1665  -19.7044 O   0  0  0  0  0  0  0  0  0  0  0  0
    7.8604   14.1045  -20.5217 O   0  0  0  0  0  0  0  0  0  0  0  0
    6.8120   11.8887  -19.5348 C   0  0  0  0  0  0  0  0  0  0  0  0
    7.0819   11.0043  -21.9098 C   0  0  0  0  0  0  0  0  0  0  0  0
    7.7377   11.2395  -20.5579 C   0  0  0  0  0  0  0  0  0  0  0  0
   10.7175   13.6411  -15.0129 N   0  0  0  0  0  0  0  0  0  0  0  0
   11.4993   12.3990  -14.9229 C   0  0  0  0  0  0  0  0  0  0  0  0
   11.2553   14.5779  -14.0865 C   0  0  0  0  0  0  0  0  0  0  0  0
   10.7474   14.6354  -12.8256 N   0  0  0  0  0  0  0  0  0  0  0  0
   11.2641   15.5201  -11.9511 C   0  0  0  0  0  0  0  0  0  0  0  0
   12.2654   16.3928  -12.1466 N   0  0  0  0  0  0  0  0  0  0  0  0
   12.7619   16.2884  -13.3866 C   0  0  0  0  0  0  0  0  0  0  0  0
   13.8056   17.0307  -13.8678 N   0  0  0  0  0  0  0  0  0  0  0  0
   14.0812   16.6606  -15.1592 C   0  0  0  0  0  0  0  0  0  0  0  0
   13.1914   15.6658  -15.5074 C   0  0  0  0  0  0  0  0  0  0  0  0
   12.3357   15.4325  -14.3907 C   0  0  0  0  0  0  0  0  0  0  0  0
   14.2864   17.7258  -13.3630 H   0  0  0  0  0  0  0  0  0  0  0  0
 11 12  1  0
 12 10  1  0
 10  7  1  0
  7  8  2  0
  7  9  2  0
  7  5  1  0
  1  5  1  1
  1  2  1  0
  2  3  1  0
  3 13  1  1
 13 14  1  0
 13 15  1  0
 15 16  1  0
 16 17  2  0
 17 18  1  0
 18 19  2  0
 19 20  1  0
 20 21  1  0
 21 22  2  0
 22 23  1  0
  3  4  1  0
  4  1  1  0
 23 15  2  0
 23 19  1  0
  5  6  1  0
 20 24  1  0
M  END
>  <Parent OID>  (2) 
1277

>  <minimizedAffinity>  (2) 
-6.19216

>  <minimizedRMSD>  (2) 
0.48238

>  <CNNscore>  (2) 
0.5134260058

>  <CNNaffinity>  (2) 
6.2791552544

>  <CNN_VS>  (2) 
3.2238817215

>  <CNNaffinity_variance>  (2) 
0.0087900478

>  <poseStage>  (2) 
minimized

>  <crystalRef>  (2) 
6bbu_fixed_protonated_minimized_smina_ligand.sdf

$$$$
1277_2_placement
     RDKit          3D

 24 26  0  0  0  0  0  0  0  0999 V2000
   12.5637   14.4726  -16.5877 C   0  0  1  0  0  0  0  0  0  0  0  0
   12.8494   14.6752  -15.0821 C   0  0  0  0  0  0  0  0  0  0  0  0
   11.3474   14.3745  -14.8341 C   0  0  2  0  0  0  0  0  0  0  0  0
   11.1040   14.8801  -16.2781 C   0  0  0  0  0  0  0  0  0  0  0  0
   13.3262   15.3384  -17.5433 N   0  0  0  0  0  0  0  0  0  0  0  0
   13.0348   15.0540  -18.4786 H   0  0  0  0  0  0  0  0  0  0  0  0
   15.0210   15.3852  -17.5706 S   0  0  0  0  0  0  0  0  0  0  0  0
   15.4463   16.4790  -16.7277 O   0  0  0  0  0  0  0  0  0  0  0  0
   15.4436   14.0222  -17.3377 O   0  0  0  0  0  0  0  0  0  0  0  0
   15.3038   15.8008  -19.2871 C   0  0  0  0  0  0  0  0  0  0  0  0
   14.9937   14.2319  -21.2717 C   0  0  0  0  0  0  0  0  0  0  0  0
   15.8712   14.6413  -20.0988 C   0  0  0  0  0  0  0  0  0  0  0  0
   10.7520   15.2293  -13.8261 N   0  0  0  0  0  0  0  0  0  0  0  0
    9.3868   14.8409  -13.4419 C   0  0  0  0  0  0  0  0  0  0  0  0
   11.4902   15.5054  -12.6412 C   0  0  0  0  0  0  0  0  0  0  0  0
   11.0673   14.9875  -11.4563 N   0  0  0  0  0  0  0  0  0  0  0  0
   11.7731   15.2475  -10.3388 C   0  0  0  0  0  0  0  0  0  0  0  0
   12.8968   15.9718  -10.2161 N   0  0  0  0  0  0  0  0  0  0  0  0
   13.3016   16.4404  -11.4043 C   0  0  0  0  0  0  0  0  0  0  0  0
   14.4295   17.1902  -11.5975 N   0  0  0  0  0  0  0  0  0  0  0  0
   14.5689   17.4834  -12.9299 C   0  0  0  0  0  0  0  0  0  0  0  0
   13.5052   16.9118  -13.5966 C   0  0  0  0  0  0  0  0  0  0  0  0
   12.6828   16.2588  -12.6318 C   0  0  0  0  0  0  0  0  0  0  0  0
   15.0480   17.4763  -10.8869 H   0  0  0  0  0  0  0  0  0  0  0  0
 11 12  1  0
 12 10  1  0
 10  7  1  0
  7  8  2  0
  7  9  2  0
  7  5  1  0
  1  5  1  6
  1  2  1  0
  2  3  1  0
  3 13  1  1
 13 14  1  0
 13 15  1  0
 15 16  1  0
 16 17  2  0
 17 18  1  0
 18 19  2  0
 19 20  1  0
 20 21  1  0
 21 22  2  0
 22 23  1  0
  3  4  1  0
  4  1  1  0
 23 15  2  0
 23 19  1  0
  5  6  1  0
 20 24  1  0
M  END
>  <Parent OID>  (3) 
1277

>  <minimizedAffinity>  (3) 
-7.20313

>  <CNNscore>  (3) 
0.6649214029

>  <CNNaffinity>  (3) 
6.5535120964

>  <CNN_VS>  (3) 
4.3575706482

>  <CNNaffinity_variance>  (3) 
0.0019919975

>  <poseStage>  (3) 
placement

>  <crystalRef>  (3) 
6bbu_fixed_protonated_minimized_smina_ligand.sdf

$$$$
1277_2_minimized
     RDKit          3D

 24 26  0  0  0  0  0  0  0  0999 V2000
   10.5301   14.5933  -17.1766 C   0  0  1  0  0  0  0  0  0  0  0  0
   11.0052   15.8477  -16.4082 C   0  0  0  0  0  0  0  0  0  0  0  0
   11.2317   14.9198  -15.1852 C   0  0  2  0  0  0  0  0  0  0  0  0
   10.1472   14.0003  -15.8002 C   0  0  0  0  0  0  0  0  0  0  0  0
    9.4242   14.7863  -18.1685 N   0  0  0  0  0  0  0  0  0  0  0  0
    8.5731   14.4576  -17.7123 H   0  0  0  0  0  0  0  0  0  0  0  0
    9.4461   14.0653  -19.7030 S   0  0  0  0  0  0  0  0  0  0  0  0
    9.7670   15.0912  -20.6686 O   0  0  0  0  0  0  0  0  0  0  0  0
   10.2466   12.8708  -19.5515 O   0  0  0  0  0  0  0  0  0  0  0  0
    7.7264   13.6010  -19.8649 C   0  0  0  0  0  0  0  0  0  0  0  0
    5.9772   11.8369  -19.2953 C   0  0  0  0  0  0  0  0  0  0  0  0
    7.3302   12.4429  -18.9555 C   0  0  0  0  0  0  0  0  0  0  0  0
   10.8226   15.5181  -13.9299 N   0  0  0  0  0  0  0  0  0  0  0  0
    9.7459   14.7901  -13.2423 C   0  0  0  0  0  0  0  0  0  0  0  0
   11.8222   15.8500  -12.9730 C   0  0  0  0  0  0  0  0  0  0  0  0
   11.6002   15.5840  -11.6573 N   0  0  0  0  0  0  0  0  0  0  0  0
   12.5522   15.8951  -10.7565 C   0  0  0  0  0  0  0  0  0  0  0  0
   13.7551   16.4489  -10.9774 N   0  0  0  0  0  0  0  0  0  0  0  0
   13.9529   16.6691  -12.2841 C   0  0  0  0  0  0  0  0  0  0  0  0
   15.0962   17.2004  -12.8155 N   0  0  0  0  0  0  0  0  0  0  0  0
   14.9850   17.2685  -14.1806 C   0  0  0  0  0  0  0  0  0  0  0  0
   13.7437   16.7744  -14.5236 C   0  0  0  0  0  0  0  0  0  0  0  0
   13.0715   16.4049  -13.3214 C   0  0  0  0  0  0  0  0  0  0  0  0
   15.8806   17.4903  -12.2959 H   0  0  0  0  0  0  0  0  0  0  0  0
 11 12  1  0
 12 10  1  0
 10  7  1  0
  7  8  2  0
  7  9  2  0
  7  5  1  0
  1  5  1  6
  1  2  1  0
  2  3  1  0
  3 13  1  1
 13 14  1  0
 13 15  1  0
 15 16  1  0
 16 17  2  0
 17 18  1  0
 18 19  2  0
 19 20  1  0
 20 21  1  0
 21 22  2  0
 22 23  1  0
  3  4  1  0
  4  1  1  0
 23 15  2  0
 23 19  1  0
  5  6  1  0
 20 24  1  0
M  END
>  <Parent OID>  (4) 
1277

>  <minimizedAffinity>  (4) 
-7.63407

>  <minimizedRMSD>  (4) 
4.22556

>  <CNNscore>  (4) 
0.9301530719

>  <CNNaffinity>  (4) 
6.7921223640

>  <CNN_VS>  (4) 
6.3177132607

>  <CNNaffinity_variance>  (4) 
0.0194163527

>  <poseStage>  (4) 
minimized

>  <crystalRef>  (4) 
6bbu_fixed_protonated_minimized_smina_ligand.sdf

$$$$
1277_3_placement
     RDKit          3D

 24 26  0  0  0  0  0  0  0  0999 V2000
   10.7934   14.8009  -18.6260 C   0  0  1  0  0  0  0  0  0  0  0  0
   10.7371   14.8157  -17.0813 C   0  0  0  0  0  0  0  0  0  0  0  0
   12.1685   15.4143  -17.1104 C   0  0  2  0  0  0  0  0  0  0  0  0
   12.3314   14.7165  -18.4839 C   0  0  0  0  0  0  0  0  0  0  0  0
   10.1081   13.6620  -19.3169 N   0  0  0  0  0  0  0  0  0  0  0  0
   10.4780   13.6424  -20.2673 H   0  0  0  0  0  0  0  0  0  0  0  0
    8.4212   13.5738  -19.4649 S   0  0  0  0  0  0  0  0  0  0  0  0
    7.9276   12.7325  -18.3989 O   0  0  0  0  0  0  0  0  0  0  0  0
    7.9817   14.9407  -19.6355 O   0  0  0  0  0  0  0  0  0  0  0  0
    8.2798   12.7140  -21.0269 C   0  0  0  0  0  0  0  0  0  0  0  0
    6.3664   11.2146  -21.7930 C   0  0  0  0  0  0  0  0  0  0  0  0
    6.8461   12.6356  -21.5403 C   0  0  0  0  0  0  0  0  0  0  0  0
   13.0385   14.8657  -16.0889 N   0  0  0  0  0  0  0  0  0  0  0  0
   14.3749   14.4939  -16.5769 C   0  0  0  0  0  0  0  0  0  0  0  0
   13.1893   15.5767  -14.8655 C   0  0  0  0  0  0  0  0  0  0  0  0
   14.2400   16.4278  -14.7142 N   0  0  0  0  0  0  0  0  0  0  0  0
   14.3747   17.1025  -13.5560 C   0  0  0  0  0  0  0  0  0  0  0  0
   13.5784   17.0651  -12.4758 N   0  0  0  0  0  0  0  0  0  0  0  0
   12.5391   16.2422  -12.6702 C   0  0  0  0  0  0  0  0  0  0  0  0
   11.5459   16.0199  -11.7558 N   0  0  0  0  0  0  0  0  0  0  0  0
   10.6238   15.1480  -12.2755 C   0  0  0  0  0  0  0  0  0  0  0  0
   11.0418   14.8056  -13.5446 C   0  0  0  0  0  0  0  0  0  0  0  0
   12.2697   15.4846  -13.7997 C   0  0  0  0  0  0  0  0  0  0  0  0
   11.5002   16.4248  -10.8596 H   0  0  0  0  0  0  0  0  0  0  0  0
 11 12  1  0
 12 10  1  0
 10  7  1  0
  7  8  2  0
  7  9  2  0
  7  5  1  0
  1  5  1  1
  1  2  1  0
  2  3  1  0
  3 13  1  1
 13 14  1  0
 13 15  1  0
 15 16  1  0
 16 17  2  0
 17 18  1  0
 18 19  2  0
 19 20  1  0
 20 21  1  0
 21 22  2  0
 22 23  1  0
  3  4  1  0
  4  1  1  0
 23 15  2  0
 23 19  1  0
  5  6  1  0
 20 24  1  0
M  END
>  <Parent OID>  (5) 
1277

>  <minimizedAffinity>  (5) 
-6.93940

>  <CNNscore>  (5) 
0.4980795383

>  <CNNaffinity>  (5) 
6.3662662506

>  <CNN_VS>  (5) 
3.1709070206

>  <CNNaffinity_variance>  (5) 
0.1222282723

>  <poseStage>  (5) 
placement

>  <crystalRef>  (5) 
6bbu_fixed_protonated_minimized_smina_ligand.sdf

$$$$
1277_3_minimized
     RDKit          3D

 24 26  0  0  0  0  0  0  0  0999 V2000
    9.4569   14.8769  -17.5574 C   0  0  1  0  0  0  0  0  0  0  0  0
    9.9248   14.7452  -16.0900 C   0  0  0  0  0  0  0  0  0  0  0  0
   11.1729   15.5745  -16.4931 C   0  0  2  0  0  0  0  0  0  0  0  0
   10.9497   15.0381  -17.9292 C   0  0  0  0  0  0  0  0  0  0  0  0
    8.7301   13.7053  -18.1432 N   0  0  0  0  0  0  0  0  0  0  0  0
    9.4105   13.2068  -18.7168 H   0  0  0  0  0  0  0  0  0  0  0  0
    7.3445   13.8855  -19.1040 S   0  0  0  0  0  0  0  0  0  0  0  0
    6.3640   12.9263  -18.6495 O   0  0  0  0  0  0  0  0  0  0  0  0
    7.0800   15.3068  -19.1283 O   0  0  0  0  0  0  0  0  0  0  0  0
    7.9885   13.3824  -20.6950 C   0  0  0  0  0  0  0  0  0  0  0  0
    7.3059   11.1406  -21.6972 C   0  0  0  0  0  0  0  0  0  0  0  0
    6.9741   12.6162  -21.5371 C   0  0  0  0  0  0  0  0  0  0  0  0
   12.3997   15.0906  -15.8913 N   0  0  0  0  0  0  0  0  0  0  0  0
   13.5162   14.9498  -16.8379 C   0  0  0  0  0  0  0  0  0  0  0  0
   12.8847   15.7324  -14.7175 C   0  0  0  0  0  0  0  0  0  0  0  0
   13.9694   16.5493  -14.8042 N   0  0  0  0  0  0  0  0  0  0  0  0
   14.4208   17.1587  -13.6908 C   0  0  0  0  0  0  0  0  0  0  0  0
   13.9272   17.0832  -12.4447 N   0  0  0  0  0  0  0  0  0  0  0  0
   12.8435   16.2965  -12.4013 C   0  0  0  0  0  0  0  0  0  0  0  0
   12.1105   16.0498  -11.2727 N   0  0  0  0  0  0  0  0  0  0  0  0
   11.0549   15.2285  -11.5756 C   0  0  0  0  0  0  0  0  0  0  0  0
   11.1209   14.9437  -12.9236 C   0  0  0  0  0  0  0  0  0  0  0  0
   12.2663   15.6060  -13.4559 C   0  0  0  0  0  0  0  0  0  0  0  0
   12.3107   16.4079  -10.3777 H   0  0  0  0  0  0  0  0  0  0  0  0
 11 12  1  0
 12 10  1  0
 10  7  1  0
  7  8  2  0
  7  9  2  0
  7  5  1  0
  1  5  1  6
  1  2  1  0
  2  3  1  0
  3 13  1  1
 13 14  1  0
 13 15  1  0
 15 16  1  0
 16 17  2  0
 17 18  1  0
 18 19  2  0
 19 20  1  0
 20 21  1  0
 21 22  2  0
 22 23  1  0
  3  4  1  0
  4  1  1  0
 23 15  2  0
 23 19  1  0
  5  6  1  0
 20 24  1  0
M  END
>  <Parent OID>  (6) 
1277

>  <minimizedAffinity>  (6) 
-6.84821

>  <minimizedRMSD>  (6) 
1.00249

>  <CNNscore>  (6) 
0.7506313920

>  <CNNaffinity>  (6) 
6.5415730476

>  <CNN_VS>  (6) 
4.9103102684

>  <CNNaffinity_variance>  (6) 
0.0121487873

>  <poseStage>  (6) 
minimized

>  <crystalRef>  (6) 
6bbu_fixed_protonated_minimized_smina_ligand.sdf

$$$$
1277_4_placement
     RDKit          3D

 24 26  0  0  0  0  0  0  0  0999 V2000
    8.8096   14.3012  -17.1222 C   0  0  1  0  0  0  0  0  0  0  0  0
    9.7556   15.5148  -16.9753 C   0  0  0  0  0  0  0  0  0  0  0  0
   10.5306   14.6864  -15.9165 C   0  0  2  0  0  0  0  0  0  0  0  0
    9.2015   13.9286  -15.6730 C   0  0  0  0  0  0  0  0  0  0  0  0
    7.3647   14.5976  -17.3840 N   0  0  0  0  0  0  0  0  0  0  0  0
    6.8323   13.9210  -16.8370 H   0  0  0  0  0  0  0  0  0  0  0  0
    6.7013   14.5699  -18.9443 S   0  0  0  0  0  0  0  0  0  0  0  0
    5.6052   15.5108  -18.9751 O   0  0  0  0  0  0  0  0  0  0  0  0
    7.8312   14.6720  -19.8406 O   0  0  0  0  0  0  0  0  0  0  0  0
    6.0640   12.8993  -18.9933 C   0  0  0  0  0  0  0  0  0  0  0  0
    4.8516   12.0009  -21.0473 C   0  0  0  0  0  0  0  0  0  0  0  0
    4.7439   12.7834  -19.7476 C   0  0  0  0  0  0  0  0  0  0  0  0
   10.9533   15.4715  -14.7737 N   0  0  0  0  0  0  0  0  0  0  0  0
   10.5924   14.8822  -13.4757 C   0  0  0  0  0  0  0  0  0  0  0  0
   12.3059   15.9088  -14.7074 C   0  0  0  0  0  0  0  0  0  0  0  0
   13.0527   15.9408  -15.8442 N   0  0  0  0  0  0  0  0  0  0  0  0
   14.3308   16.3610  -15.7765 C   0  0  0  0  0  0  0  0  0  0  0  0
   15.0096   16.7846  -14.6985 N   0  0  0  0  0  0  0  0  0  0  0  0
   14.2367   16.7692  -13.6042 C   0  0  0  0  0  0  0  0  0  0  0  0
   14.6455   17.1704  -12.3617 N   0  0  0  0  0  0  0  0  0  0  0  0
   13.6082   17.0543  -11.4723 C   0  0  0  0  0  0  0  0  0  0  0  0
   12.5190   16.5649  -12.1627 C   0  0  0  0  0  0  0  0  0  0  0  0
   12.9134   16.3643  -13.5185 C   0  0  0  0  0  0  0  0  0  0  0  0
   15.5485   17.4939  -12.1397 H   0  0  0  0  0  0  0  0  0  0  0  0
 11 12  1  0
 12 10  1  0
 10  7  1  0
  7  8  2  0
  7  9  2  0
  7  5  1  0
  1  5  1  1
  1  2  1  0
  2  3  1  0
  3 13  1  1
 13 14  1  0
 13 15  1  0
 15 16  1  0
 16 17  2  0
 17 18  1  0
 18 19  2  0
 19 20  1  0
 20 21  1  0
 21 22  2  0
 22 23  1  0
  3  4  1  0
  4  1  1  0
 23 15  2  0
 23 19  1  0
  5  6  1  0
 20 24  1  0
M  END
>  <Parent OID>  (7) 
1277

>  <minimizedAffinity>  (7) 
-8.11241

>  <CNNscore>  (7) 
0.2843783498

>  <CNNaffinity>  (7) 
5.6627478600

>  <CNN_VS>  (7) 
1.6103628874

>  <CNNaffinity_variance>  (7) 
0.3221852779

>  <poseStage>  (7) 
placement

>  <crystalRef>  (7) 
6bbu_fixed_protonated_minimized_smina_ligand.sdf

$$$$
1277_4_minimized
     RDKit          3D

 24 26  0  0  0  0  0  0  0  0999 V2000
    9.2930   14.1170  -17.3756 C   0  0  1  0  0  0  0  0  0  0  0  0
    9.9430   15.4498  -16.9393 C   0  0  0  0  0  0  0  0  0  0  0  0
   10.8985   14.6065  -16.0539 C   0  0  2  0  0  0  0  0  0  0  0  0
    9.7777   13.5374  -16.0258 C   0  0  0  0  0  0  0  0  0  0  0  0
    7.8152   14.1333  -17.6204 N   0  0  0  0  0  0  0  0  0  0  0  0
    7.4932   13.1759  -17.4782 H   0  0  0  0  0  0  0  0  0  0  0  0
    7.1452   14.6431  -19.0923 S   0  0  0  0  0  0  0  0  0  0  0  0
    6.2436   15.7369  -18.8120 O   0  0  0  0  0  0  0  0  0  0  0  0
    8.2667   14.7795  -19.9945 O   0  0  0  0  0  0  0  0  0  0  0  0
    6.2070   13.1874  -19.5400 C   0  0  0  0  0  0  0  0  0  0  0  0
    3.6702   13.4161  -19.4489 C   0  0  0  0  0  0  0  0  0  0  0  0
    4.9385   13.0140  -18.7119 C   0  0  0  0  0  0  0  0  0  0  0  0
   11.1483   15.2005  -14.7556 N   0  0  0  0  0  0  0  0  0  0  0  0
   10.8855   14.2991  -13.6239 C   0  0  0  0  0  0  0  0  0  0  0  0
   12.3930   15.8525  -14.5301 C   0  0  0  0  0  0  0  0  0  0  0  0
   13.1721   16.1880  -15.5938 N   0  0  0  0  0  0  0  0  0  0  0  0
   14.3467   16.8101  -15.3748 C   0  0  0  0  0  0  0  0  0  0  0  0
   14.8863   17.1763  -14.2014 N   0  0  0  0  0  0  0  0  0  0  0  0
   14.0805   16.8588  -13.1791 C   0  0  0  0  0  0  0  0  0  0  0  0
   14.3516   17.1307  -11.8660 N   0  0  0  0  0  0  0  0  0  0  0  0
   13.3139   16.7004  -11.0795 C   0  0  0  0  0  0  0  0  0  0  0  0
   12.3658   16.1392  -11.9094 C   0  0  0  0  0  0  0  0  0  0  0  0
   12.8517   16.2202  -13.2478 C   0  0  0  0  0  0  0  0  0  0  0  0
   15.1686   17.5695  -11.5355 H   0  0  0  0  0  0  0  0  0  0  0  0
 11 12  1  0
 12 10  1  0
 10  7  1  0
  7  8  2  0
  7  9  2  0
  7  5  1  0
  1  5  1  1
  1  2  1  0
  2  3  1  0
  3 13  1  1
 13 14  1  0
 13 15  1  0
 15 16  1  0
 16 17  2  0
 17 18  1  0
 18 19  2  0
 19 20  1  0
 20 21  1  0
 21 22  2  0
 22 23  1  0
  3  4  1  0
  4  1  1  0
 23 15  2  0
 23 19  1  0
  5  6  1  0
 20 24  1  0
M  END
>  <Parent OID>  (8) 
1277

>  <minimizedAffinity>  (8) 
-7.90497

>  <minimizedRMSD>  (8) 
0.76485

>  <CNNscore>  (8) 
0.4736628532

>  <CNNaffinity>  (8) 
6.0240058899

>  <CNN_VS>  (8) 
2.8533477783

>  <CNNaffinity_variance>  (8) 
0.3441677988

>  <poseStage>  (8) 
minimized

>  <crystalRef>  (8) 
6bbu_fixed_protonated_minimized_smina_ligand.sdf

$$$$
1277_5_placement
     RDKit          3D

 24 26  0  0  0  0  0  0  0  0999 V2000
    8.0095   13.1231  -17.9372 C   0  0  1  0  0  0  0  0  0  0  0  0
    9.5369   13.2153  -18.1565 C   0  0  0  0  0  0  0  0  0  0  0  0
    9.6546   13.5775  -16.6522 C   0  0  2  0  0  0  0  0  0  0  0  0
    8.2045   14.1113  -16.7633 C   0  0  0  0  0  0  0  0  0  0  0  0
    7.1355   13.5708  -19.0685 N   0  0  0  0  0  0  0  0  0  0  0  0
    7.4565   14.5050  -19.3228 H   0  0  0  0  0  0  0  0  0  0  0  0
    5.4489   13.6736  -18.9259 S   0  0  0  0  0  0  0  0  0  0  0  0
    5.0878   13.2052  -17.6075 O   0  0  0  0  0  0  0  0  0  0  0  0
    5.1069   14.9978  -19.3948 O   0  0  0  0  0  0  0  0  0  0  0  0
    4.9485   12.4709  -20.1516 C   0  0  0  0  0  0  0  0  0  0  0  0
    3.6695   10.3107  -20.5912 C   0  0  0  0  0  0  0  0  0  0  0  0
    4.2402   11.2618  -19.5506 C   0  0  0  0  0  0  0  0  0  0  0  0
   10.6248   14.6220  -16.3898 N   0  0  0  0  0  0  0  0  0  0  0  0
   10.4001   15.8550  -17.1587 C   0  0  0  0  0  0  0  0  0  0  0  0
   10.8969   14.9786  -15.0392 C   0  0  0  0  0  0  0  0  0  0  0  0
   10.0171   14.6209  -14.0651 N   0  0  0  0  0  0  0  0  0  0  0  0
   10.2825   14.9562  -12.7877 C   0  0  0  0  0  0  0  0  0  0  0  0
   11.3474   15.6174  -12.3068 N   0  0  0  0  0  0  0  0  0  0  0  0
   12.2067   15.9270  -13.2871 C   0  0  0  0  0  0  0  0  0  0  0  0
   13.3947   16.5787  -13.0982 N   0  0  0  0  0  0  0  0  0  0  0  0
   14.0446   16.7154  -14.2980 C   0  0  0  0  0  0  0  0  0  0  0  0
   13.2512   16.1427  -15.2702 C   0  0  0  0  0  0  0  0  0  0  0  0
   12.0702   15.6519  -14.6392 C   0  0  0  0  0  0  0  0  0  0  0  0
   13.7323   16.9011  -12.2313 H   0  0  0  0  0  0  0  0  0  0  0  0
 11 12  1  0
 12 10  1  0
 10  7  1  0
  7  8  2  0
  7  9  2  0
  7  5  1  0
  1  5  1  6
  1  2  1  0
  2  3  1  0
  3 13  1  6
 13 14  1  0
 13 15  1  0
 15 16  1  0
 16 17  2  0
 17 18  1  0
 18 19  2  0
 19 20  1  0
 20 21  1  0
 21 22  2  0
 22 23  1  0
  3  4  1  0
  4  1  1  0
 23 15  2  0
 23 19  1  0
  5  6  1  0
 20 24  1  0
M  END
>  <Parent OID>  (9) 
1277

>  <minimizedAffinity>  (9) 
-7.21178

>  <CNNscore>  (9) 
0.2565620542

>  <CNNaffinity>  (9) 
5.6018481255

>  <CNN_VS>  (9) 
1.4372216463

>  <CNNaffinity_variance>  (9) 
0.0293611493

>  <poseStage>  (9) 
placement

>  <crystalRef>  (9) 
6bbu_fixed_protonated_minimized_smina_ligand.sdf

$$$$
1277_5_minimized
     RDKit          3D

 24 26  0  0  0  0  0  0  0  0999 V2000
    9.0957   13.2957  -17.4985 C   0  0  1  0  0  0  0  0  0  0  0  0
   10.5807   13.2630  -17.0704 C   0  0  0  0  0  0  0  0  0  0  0  0
   10.1428   13.9855  -15.7688 C   0  0  2  0  0  0  0  0  0  0  0  0
    8.9490   14.5372  -16.5877 C   0  0  0  0  0  0  0  0  0  0  0  0
    8.8167   13.4830  -18.9584 N   0  0  0  0  0  0  0  0  0  0  0  0
    8.9931   14.4678  -19.1571 H   0  0  0  0  0  0  0  0  0  0  0  0
    7.3088   13.1252  -19.6468 S   0  0  0  0  0  0  0  0  0  0  0  0
    6.8019   11.9339  -19.0051 O   0  0  0  0  0  0  0  0  0  0  0  0
    6.5809   14.3743  -19.6404 O   0  0  0  0  0  0  0  0  0  0  0  0
    7.8029   12.7439  -21.3231 C   0  0  0  0  0  0  0  0  0  0  0  0
    6.8919   10.6392  -22.4349 C   0  0  0  0  0  0  0  0  0  0  0  0
    6.6847   12.1187  -22.1499 C   0  0  0  0  0  0  0  0  0  0  0  0
   11.0686   15.0189  -15.3493 N   0  0  0  0  0  0  0  0  0  0  0  0
   10.8469   16.3203  -15.9967 C   0  0  0  0  0  0  0  0  0  0  0  0
   11.2634   15.2378  -13.9566 C   0  0  0  0  0  0  0  0  0  0  0  0
   10.3616   14.7357  -13.0703 N   0  0  0  0  0  0  0  0  0  0  0  0
   10.5541   14.9411  -11.7530 C   0  0  0  0  0  0  0  0  0  0  0  0
   11.5621   15.5940  -11.1529 N   0  0  0  0  0  0  0  0  0  0  0  0
   12.4461   16.0481  -12.0515 C   0  0  0  0  0  0  0  0  0  0  0  0
   13.5901   16.7291  -11.7364 N   0  0  0  0  0  0  0  0  0  0  0  0
   14.2835   17.0259  -12.8817 C   0  0  0  0  0  0  0  0  0  0  0  0
   13.5632   16.5271  -13.9470 C   0  0  0  0  0  0  0  0  0  0  0  0
   12.3825   15.9165  -13.4303 C   0  0  0  0  0  0  0  0  0  0  0  0
   13.8730   16.9699  -10.8246 H   0  0  0  0  0  0  0  0  0  0  0  0
 11 12  1  0
 12 10  1  0
 10  7  1  0
  7  8  2  0
  7  9  2  0
  7  5  1  0
  1  5  1  6
  1  2  1  0
  2  3  1  0
  3 13  1  6
 13 14  1  0
 13 15  1  0
 15 16  1  0
 16 17  2  0
 17 18  1  0
 18 19  2  0
 19 20  1  0
 20 21  1  0
 21 22  2  0
 22 23  1  0
  3  4  1  0
  4  1  1  0
 23 15  2  0
 23 19  1  0
  5  6  1  0
 20 24  1  0
M  END
>  <Parent OID>  (10) 
1277

>  <minimizedAffinity>  (10) 
-6.72112

>  <minimizedRMSD>  (10) 
1.86294

>  <CNNscore>  (10) 
0.4575502872

>  <CNNaffinity>  (10) 
6.3175067902

>  <CNN_VS>  (10) 
2.8905770779

>  <CNNaffinity_variance>  (10) 
0.0519957542

>  <poseStage>  (10) 
minimized

>  <crystalRef>  (10) 
6bbu_fixed_protonated_minimized_smina_ligand.sdf

$$$$
1277_6_placement
     RDKit          3D

 24 26  0  0  0  0  0  0  0  0999 V2000
   10.7192   14.4870  -17.9596 C   0  0  1  0  0  0  0  0  0  0  0  0
   11.8181   14.5333  -16.8735 C   0  0  0  0  0  0  0  0  0  0  0  0
   10.6747   14.6145  -15.8275 C   0  0  2  0  0  0  0  0  0  0  0  0
    9.8142   15.2380  -16.9549 C   0  0  0  0  0  0  0  0  0  0  0  0
   11.0194   15.1762  -19.2554 N   0  0  0  0  0  0  0  0  0  0  0  0
   10.6162   16.1101  -19.1804 H   0  0  0  0  0  0  0  0  0  0  0  0
   10.5081   14.5600  -20.7502 S   0  0  0  0  0  0  0  0  0  0  0  0
   10.3529   15.6739  -21.6574 O   0  0  0  0  0  0  0  0  0  0  0  0
   11.3968   13.4546  -21.0307 O   0  0  0  0  0  0  0  0  0  0  0  0
    8.8999   13.9190  -20.3009 C   0  0  0  0  0  0  0  0  0  0  0  0
    7.9233   12.0697  -21.7577 C   0  0  0  0  0  0  0  0  0  0  0  0
    8.7644   12.4191  -20.5396 C   0  0  0  0  0  0  0  0  0  0  0  0
   10.9524   15.5410  -14.7478 N   0  0  0  0  0  0  0  0  0  0  0  0
   10.4539   15.0995  -13.4368 C   0  0  0  0  0  0  0  0  0  0  0  0
   12.2820   16.0210  -14.5839 C   0  0  0  0  0  0  0  0  0  0  0  0
   13.0704   16.1879  -15.6801 N   0  0  0  0  0  0  0  0  0  0  0  0
   14.3263   16.6479  -15.5196 C   0  0  0  0  0  0  0  0  0  0  0  0
   14.9445   16.9937  -14.3791 N   0  0  0  0  0  0  0  0  0  0  0  0
   14.1309   16.8465  -13.3249 C   0  0  0  0  0  0  0  0  0  0  0  0
   14.4741   17.1444  -12.0344 N   0  0  0  0  0  0  0  0  0  0  0  0
   13.4087   16.9060  -11.2044 C   0  0  0  0  0  0  0  0  0  0  0  0
   12.3685   16.4428  -11.9828 C   0  0  0  0  0  0  0  0  0  0  0  0
   12.8233   16.3855  -13.3333 C   0  0  0  0  0  0  0  0  0  0  0  0
   15.3535   17.4795  -11.7451 H   0  0  0  0  0  0  0  0  0  0  0  0
 11 12  1  0
 12 10  1  0
 10  7  1  0
  7  8  2  0
  7  9  2  0
  7  5  1  0
  1  5  1  6
  1  2  1  0
  2  3  1  0
  3 13  1  1
 13 14  1  0
 13 15  1  0
 15 16  1  0
 16 17  2  0
 17 18  1  0
 18 19  2  0
 19 20  1  0
 20 21  1  0
 21 22  2  0
 22 23  1  0
  3  4  1  0
  4  1  1  0
 23 15  2  0
 23 19  1  0
  5  6  1  0
 20 24  1  0
M  END
>  <Parent OID>  (11) 
1277

>  <minimizedAffinity>  (11) 
-6.90512

>  <CNNscore>  (11) 
0.2545652390

>  <CNNaffinity>  (11) 
5.5883650780

>  <CNN_VS>  (11) 
1.4226034880

>  <CNNaffinity_variance>  (11) 
0.1467594504

>  <poseStage>  (11) 
placement

>  <crystalRef>  (11) 
6bbu_fixed_protonated_minimized_smina_ligand.sdf

$$$$
1277_6_minimized
     RDKit          3D

 24 26  0  0  0  0  0  0  0  0999 V2000
   10.9740   14.4336  -18.1218 C   0  0  1  0  0  0  0  0  0  0  0  0
   12.0741   14.6971  -17.0685 C   0  0  0  0  0  0  0  0  0  0  0  0
   10.9765   14.5132  -15.9870 C   0  0  2  0  0  0  0  0  0  0  0  0
    9.9641   14.9557  -17.0730 C   0  0  0  0  0  0  0  0  0  0  0  0
   11.0747   15.1925  -19.4095 N   0  0  0  0  0  0  0  0  0  0  0  0
   10.5771   16.0705  -19.2613 H   0  0  0  0  0  0  0  0  0  0  0  0
   10.5019   14.5673  -20.8780 S   0  0  0  0  0  0  0  0  0  0  0  0
   10.3214   15.6743  -21.7890 O   0  0  0  0  0  0  0  0  0  0  0  0
   11.3704   13.4520  -21.1819 O   0  0  0  0  0  0  0  0  0  0  0  0
    8.9069   13.9439  -20.3621 C   0  0  0  0  0  0  0  0  0  0  0  0
    7.9670   12.0201  -21.7446 C   0  0  0  0  0  0  0  0  0  0  0  0
    8.7730   12.4335  -20.5228 C   0  0  0  0  0  0  0  0  0  0  0  0
   11.0862   15.4598  -14.8946 N   0  0  0  0  0  0  0  0  0  0  0  0
   10.4585   15.0067  -13.6444 C   0  0  0  0  0  0  0  0  0  0  0  0
   12.3655   16.0003  -14.5842 C   0  0  0  0  0  0  0  0  0  0  0  0
   13.1964   16.3700  -15.5962 N   0  0  0  0  0  0  0  0  0  0  0  0
   14.4039   16.8863  -15.2965 C   0  0  0  0  0  0  0  0  0  0  0  0
   14.9330   17.1112  -14.0832 N   0  0  0  0  0  0  0  0  0  0  0  0
   14.0777   16.7651  -13.1118 C   0  0  0  0  0  0  0  0  0  0  0  0
   14.3285   16.9035  -11.7739 N   0  0  0  0  0  0  0  0  0  0  0  0
   13.2413   16.4815  -11.0522 C   0  0  0  0  0  0  0  0  0  0  0  0
   12.2816   16.0622  -11.9498 C   0  0  0  0  0  0  0  0  0  0  0  0
   12.8107   16.2233  -13.2644 C   0  0  0  0  0  0  0  0  0  0  0  0
   15.1637   17.2533  -11.3874 H   0  0  0  0  0  0  0  0  0  0  0  0
 11 12  1  0
 12 10  1  0
 10  7  1  0
  7  8  2  0
  7  9  2  0
  7  5  1  0
  1  5  1  6
  1  2  1  0
  2  3  1  0
  3 13  1  1
 13 14  1  0
 13 15  1  0
 15 16  1  0
 16 17  2  0
 17 18  1  0
 18 19  2  0
 19 20  1  0
 20 21  1  0
 21 22  2  0
 22 23  1  0
  3  4  1  0
  4  1  1  0
 23 15  2  0
 23 19  1  0
  5  6  1  0
 20 24  1  0
M  END
>  <Parent OID>  (12) 
1277

>  <minimizedAffinity>  (12) 
-6.76877

>  <minimizedRMSD>  (12) 
0.26591

>  <CNNscore>  (12) 
0.2585330307

>  <CNNaffinity>  (12) 
5.6269721985

>  <CNN_VS>  (12) 
1.4547581673

>  <CNNaffinity_variance>  (12) 
0.2067876309

>  <poseStage>  (12) 
minimized

>  <crystalRef>  (12) 
6bbu_fixed_protonated_minimized_smina_ligand.sdf

$$$$
1277_7_placement
     RDKit          3D

 24 26  0  0  0  0  0  0  0  0999 V2000
    8.5851   14.3153  -17.7686 C   0  0  1  0  0  0  0  0  0  0  0  0
    9.4557   15.2581  -16.9068 C   0  0  0  0  0  0  0  0  0  0  0  0
   10.4820   14.0982  -16.8101 C   0  0  2  0  0  0  0  0  0  0  0  0
    9.2838   13.1435  -17.0397 C   0  0  0  0  0  0  0  0  0  0  0  0
    7.1001   14.4309  -17.6081 N   0  0  0  0  0  0  0  0  0  0  0  0
    6.8097   13.6204  -17.0611 H   0  0  0  0  0  0  0  0  0  0  0  0
    6.0475   14.5064  -18.9354 S   0  0  0  0  0  0  0  0  0  0  0  0
    5.4255   15.8106  -18.9323 O   0  0  0  0  0  0  0  0  0  0  0  0
    6.8164   14.0210  -20.0595 O   0  0  0  0  0  0  0  0  0  0  0  0
    4.8485   13.2649  -18.4662 C   0  0  0  0  0  0  0  0  0  0  0  0
    2.7959   13.5106  -19.9570 C   0  0  0  0  0  0  0  0  0  0  0  0
    3.4073   13.7485  -18.5848 C   0  0  0  0  0  0  0  0  0  0  0  0
   11.0700   13.9635  -15.4921 N   0  0  0  0  0  0  0  0  0  0  0  0
   11.6062   12.6238  -15.2096 C   0  0  0  0  0  0  0  0  0  0  0  0
   12.0266   14.9282  -15.0685 C   0  0  0  0  0  0  0  0  0  0  0  0
   11.8942   15.5050  -13.8434 N   0  0  0  0  0  0  0  0  0  0  0  0
   12.8058   16.4133  -13.4453 C   0  0  0  0  0  0  0  0  0  0  0  0
   13.8882   16.8495  -14.1092 N   0  0  0  0  0  0  0  0  0  0  0  0
   14.0049   16.2396  -15.2964 C   0  0  0  0  0  0  0  0  0  0  0  0
   15.0229   16.4601  -16.1835 N   0  0  0  0  0  0  0  0  0  0  0  0
   14.8597   15.6597  -17.2850 C   0  0  0  0  0  0  0  0  0  0  0  0
   13.7119   14.9184  -17.0960 C   0  0  0  0  0  0  0  0  0  0  0  0
   13.1506   15.2921  -15.8394 C   0  0  0  0  0  0  0  0  0  0  0  0
   15.7614   17.0975  -16.0510 H   0  0  0  0  0  0  0  0  0  0  0  0
 11 12  1  0
 12 10  1  0
 10  7  1  0
  7  8  2  0
  7  9  2  0
  7  5  1  0
  1  5  1  1
  1  2  1  0
  2  3  1  0
  3 13  1  1
 13 14  1  0
 13 15  1  0
 15 16  1  0
 16 17  2  0
 17 18  1  0
 18 19  2  0
 19 20  1  0
 20 21  1  0
 21 22  2  0
 22 23  1  0
  3  4  1  0
  4  1  1  0
 23 15  2  0
 23 19  1  0
  5  6  1  0
 20 24  1  0
M  END
>  <Parent OID>  (13) 
1277

>  <minimizedAffinity>  (13) 
-7.08817

>  <CNNscore>  (13) 
0.2118883282

>  <CNNaffinity>  (13) 
5.5526161194

>  <CNN_VS>  (13) 
1.1765345335

>  <CNNaffinity_variance>  (13) 
0.1303057224

>  <poseStage>  (13) 
placement

>  <crystalRef>  (13) 
6bbu_fixed_protonated_minimized_smina_ligand.sdf

$$$$
1277_7_minimized
     RDKit          3D

 24 26  0  0  0  0  0  0  0  0999 V2000
    8.3857   14.2622  -17.7470 C   0  0  1  0  0  0  0  0  0  0  0  0
    8.9927   15.0048  -16.5347 C   0  0  0  0  0  0  0  0  0  0  0  0
   10.1900   14.0221  -16.6286 C   0  0  2  0  0  0  0  0  0  0  0  0
    9.2029   13.0300  -17.2928 C   0  0  0  0  0  0  0  0  0  0  0  0
    6.8946   14.1198  -17.7756 N   0  0  0  0  0  0  0  0  0  0  0  0
    6.6858   13.2290  -17.3248 H   0  0  0  0  0  0  0  0  0  0  0  0
    6.0096   14.1360  -19.2219 S   0  0  0  0  0  0  0  0  0  0  0  0
    5.3150   15.4006  -19.3006 O   0  0  0  0  0  0  0  0  0  0  0  0
    6.9377   13.7008  -20.2415 O   0  0  0  0  0  0  0  0  0  0  0  0
    4.8386   12.8236  -18.8972 C   0  0  0  0  0  0  0  0  0  0  0  0
    2.7425   12.9557  -20.3412 C   0  0  0  0  0  0  0  0  0  0  0  0
    3.3864   13.2768  -19.0012 C   0  0  0  0  0  0  0  0  0  0  0  0
   10.6624   13.5712  -15.3345 N   0  0  0  0  0  0  0  0  0  0  0  0
   11.5487   12.3995  -15.3955 C   0  0  0  0  0  0  0  0  0  0  0  0
   11.2378   14.5234  -14.4472 C   0  0  0  0  0  0  0  0  0  0  0  0
   10.7449   14.6411  -13.1846 N   0  0  0  0  0  0  0  0  0  0  0  0
   11.2971   15.5400  -12.3471 C   0  0  0  0  0  0  0  0  0  0  0  0
   12.3224   16.3742  -12.5829 N   0  0  0  0  0  0  0  0  0  0  0  0
   12.8027   16.2107  -13.8229 C   0  0  0  0  0  0  0  0  0  0  0  0
   13.8634   16.9031  -14.3400 N   0  0  0  0  0  0  0  0  0  0  0  0
   14.1143   16.4792  -15.6198 C   0  0  0  0  0  0  0  0  0  0  0  0
   13.1913   15.5004  -15.9239 C   0  0  0  0  0  0  0  0  0  0  0  0
   12.3405   15.3331  -14.7917 C   0  0  0  0  0  0  0  0  0  0  0  0
   14.3702   17.6006  -13.8648 H   0  0  0  0  0  0  0  0  0  0  0  0
 11 12  1  0
 12 10  1  0
 10  7  1  0
  7  8  2  0
  7  9  2  0
  7  5  1  0
  1  5  1  1
  1  2  1  0
  2  3  1  0
  3 13  1  1
 13 14  1  0
 13 15  1  0
 15 16  1  0
 16 17  2  0
 17 18  1  0
 18 19  2  0
 19 20  1  0
 20 21  1  0
 21 22  2  0
 22 23  1  0
  3  4  1  0
  4  1  1  0
 23 15  2  0
 23 19  1  0
  5  6  1  0
 20 24  1  0
M  END
>  <Parent OID>  (14) 
1277

>  <minimizedAffinity>  (14) 
-6.37753

>  <minimizedRMSD>  (14) 
1.21377

>  <CNNscore>  (14) 
0.4044351280

>  <CNNaffinity>  (14) 
6.0397105217

>  <CNN_VS>  (14) 
2.4426710606

>  <CNNaffinity_variance>  (14) 
0.1158105955

>  <poseStage>  (14) 
minimized

>  <crystalRef>  (14) 
6bbu_fixed_protonated_minimized_smina_ligand.sdf

$$$$
1277_8_placement
     RDKit          3D

 24 26  0  0  0  0  0  0  0  0999 V2000
   14.4827   14.5518  -19.2353 C   0  0  1  0  0  0  0  0  0  0  0  0
   15.5153   14.6956  -18.0940 C   0  0  0  0  0  0  0  0  0  0  0  0
   14.3165   14.6747  -17.1089 C   0  0  2  0  0  0  0  0  0  0  0  0
   13.4636   15.2192  -18.2820 C   0  0  0  0  0  0  0  0  0  0  0  0
   14.7872   15.2651  -20.5169 N   0  0  0  0  0  0  0  0  0  0  0  0
   14.6792   16.2602  -20.3207 H   0  0  0  0  0  0  0  0  0  0  0  0
   13.9247   14.9694  -21.9466 S   0  0  0  0  0  0  0  0  0  0  0  0
   14.5114   13.8138  -22.5855 O   0  0  0  0  0  0  0  0  0  0  0  0
   12.5304   15.0164  -21.5670 O   0  0  0  0  0  0  0  0  0  0  0  0
   14.3284   16.4430  -22.8765 C   0  0  0  0  0  0  0  0  0  0  0  0
   13.5833   18.5522  -21.6549 C   0  0  0  0  0  0  0  0  0  0  0  0
   13.2769   17.5398  -22.7477 C   0  0  0  0  0  0  0  0  0  0  0  0
   14.4543   15.6220  -16.0205 N   0  0  0  0  0  0  0  0  0  0  0  0
   14.8471   16.9729  -16.4484 C   0  0  0  0  0  0  0  0  0  0  0  0
   13.3940   15.7402  -15.0787 C   0  0  0  0  0  0  0  0  0  0  0  0
   12.1502   15.3047  -15.4170 N   0  0  0  0  0  0  0  0  0  0  0  0
   11.1516   15.4139  -14.5196 C   0  0  0  0  0  0  0  0  0  0  0  0
   11.2068   15.9055  -13.2716 N   0  0  0  0  0  0  0  0  0  0  0  0
   12.4502   16.2962  -12.9609 C   0  0  0  0  0  0  0  0  0  0  0  0
   12.8191   16.8146  -11.7497 N   0  0  0  0  0  0  0  0  0  0  0  0
   14.1634   17.0858  -11.7513 C   0  0  0  0  0  0  0  0  0  0  0  0
   14.6582   16.7368  -12.9907 C   0  0  0  0  0  0  0  0  0  0  0  0
   13.5718   16.2479  -13.7746 C   0  0  0  0  0  0  0  0  0  0  0  0
   12.2110   16.9695  -10.9911 H   0  0  0  0  0  0  0  0  0  0  0  0
 11 12  1  0
 12 10  1  0
 10  7  1  0
  7  8  2  0
  7  9  2  0
  7  5  1  0
  1  5  1  6
  1  2  1  0
  2  3  1  0
  3 13  1  1
 13 14  1  0
 13 15  1  0
 15 16  1  0
 16 17  2  0
 17 18  1  0
 18 19  2  0
 19 20  1  0
 20 21  1  0
 21 22  2  0
 22 23  1  0
  3  4  1  0
  4  1  1  0
 23 15  2  0
 23 19  1  0
  5  6  1  0
 20 24  1  0
M  END
>  <Parent OID>  (15) 
1277

>  <minimizedAffinity>  (15) 
-6.21915

>  <CNNscore>  (15) 
0.2070924640

>  <CNNaffinity>  (15) 
5.4595813751

>  <CNN_VS>  (15) 
1.1306381226

>  <CNNaffinity_variance>  (15) 
0.1008752286

>  <poseStage>  (15) 
placement

>  <crystalRef>  (15) 
6bbu_fixed_protonated_minimized_smina_ligand.sdf

$$$$
1277_8_minimized
     RDKit          3D

 24 26  0  0  0  0  0  0  0  0999 V2000
   11.8882   14.7507  -18.3940 C   0  0  1  0  0  0  0  0  0  0  0  0
   13.0731   14.5143  -17.4299 C   0  0  0  0  0  0  0  0  0  0  0  0
   12.0454   14.5884  -16.2696 C   0  0  2  0  0  0  0  0  0  0  0  0
   11.1815   15.4601  -17.2150 C   0  0  0  0  0  0  0  0  0  0  0  0
   12.1645   15.5702  -19.6172 N   0  0  0  0  0  0  0  0  0  0  0  0
   11.8062   16.5046  -19.4199 H   0  0  0  0  0  0  0  0  0  0  0  0
   11.5654   15.1479  -21.1463 S   0  0  0  0  0  0  0  0  0  0  0  0
   12.2597   13.9570  -21.5793 O   0  0  0  0  0  0  0  0  0  0  0  0
   10.1261   15.1987  -21.0188 O   0  0  0  0  0  0  0  0  0  0  0  0
   12.1181   16.5516  -22.1072 C   0  0  0  0  0  0  0  0  0  0  0  0
   10.9768   18.5638  -23.1771 C   0  0  0  0  0  0  0  0  0  0  0  0
   11.0719   17.0479  -23.0994 C   0  0  0  0  0  0  0  0  0  0  0  0
   12.5362   15.3172  -15.1168 N   0  0  0  0  0  0  0  0  0  0  0  0
   12.8944   16.7150  -15.3999 C   0  0  0  0  0  0  0  0  0  0  0  0
   11.7779   15.2833  -13.9130 C   0  0  0  0  0  0  0  0  0  0  0  0
   10.4967   14.8265  -13.9447 N   0  0  0  0  0  0  0  0  0  0  0  0
    9.7855   14.7914  -12.8013 C   0  0  0  0  0  0  0  0  0  0  0  0
   10.1774   15.1499  -11.5684 N   0  0  0  0  0  0  0  0  0  0  0  0
   11.4513   15.5651  -11.5680 C   0  0  0  0  0  0  0  0  0  0  0  0
   12.1337   15.9692  -10.4532 N   0  0  0  0  0  0  0  0  0  0  0  0
   13.4197   16.3038  -10.7925 C   0  0  0  0  0  0  0  0  0  0  0  0
   13.5560   16.1127  -12.1517 C   0  0  0  0  0  0  0  0  0  0  0  0
   12.3029   15.6577  -12.6583 C   0  0  0  0  0  0  0  0  0  0  0  0
   11.7581   16.0131   -9.5442 H   0  0  0  0  0  0  0  0  0  0  0  0
 11 12  1  0
 12 10  1  0
 10  7  1  0
  7  8  2  0
  7  9  2  0
  7  5  1  0
  1  5  1  6
  1  2  1  0
  2  3  1  0
  3 13  1  1
 13 14  1  0
 13 15  1  0
 15 16  1  0
 16 17  2  0
 17 18  1  0
 18 19  2  0
 19 20  1  0
 20 21  1  0
 21 22  2  0
 22 23  1  0
  3  4  1  0
  4  1  1  0
 23 15  2  0
 23 19  1  0
  5  6  1  0
 20 24  1  0
M  END
>  <Parent OID>  (16) 
1277

>  <minimizedAffinity>  (16) 
-5.75038

>  <minimizedRMSD>  (16) 
2.28439

>  <CNNscore>  (16) 
0.2444756180

>  <CNNaffinity>  (16) 
5.9564080238

>  <CNN_VS>  (16) 
1.4561965466

>  <CNNaffinity_variance>  (16) 
0.0886491165

>  <poseStage>  (16) 
minimized

>  <crystalRef>  (16) 
6bbu_fixed_protonated_minimized_smina_ligand.sdf

$$$$
1277_9_placement
     RDKit          3D

 24 26  0  0  0  0  0  0  0  0999 V2000
    5.5843   12.3476  -19.1337 C   0  0  1  0  0  0  0  0  0  0  0  0
    6.3116   13.2575  -20.1498 C   0  0  0  0  0  0  0  0  0  0  0  0
    7.3653   12.1273  -20.2928 C   0  0  2  0  0  0  0  0  0  0  0  0
    6.9607   11.6968  -18.8607 C   0  0  0  0  0  0  0  0  0  0  0  0
    4.9089   13.0255  -17.9811 N   0  0  0  0  0  0  0  0  0  0  0  0
    4.2186   12.3634  -17.6270 H   0  0  0  0  0  0  0  0  0  0  0  0
    4.1005   14.5069  -18.1471 S   0  0  0  0  0  0  0  0  0  0  0  0
    5.0791   15.5615  -18.0128 O   0  0  0  0  0  0  0  0  0  0  0  0
    3.2791   14.3623  -19.3281 O   0  0  0  0  0  0  0  0  0  0  0  0
    3.0540   14.4665  -16.6972 C   0  0  0  0  0  0  0  0  0  0  0  0
    1.5996   16.1602  -15.4676 C   0  0  0  0  0  0  0  0  0  0  0  0
    2.9915   15.8030  -15.9658 C   0  0  0  0  0  0  0  0  0  0  0  0
    8.7258   12.6208  -20.3735 N   0  0  0  0  0  0  0  0  0  0  0  0
    9.0998   13.1318  -21.7006 C   0  0  0  0  0  0  0  0  0  0  0  0
    9.1758   13.5482  -19.3924 C   0  0  0  0  0  0  0  0  0  0  0  0
    8.3193   13.9543  -18.4164 N   0  0  0  0  0  0  0  0  0  0  0  0
    8.7524   14.8280  -17.4870 C   0  0  0  0  0  0  0  0  0  0  0  0
    9.9710   15.3788  -17.3691 N   0  0  0  0  0  0  0  0  0  0  0  0
   10.7965   14.9344  -18.3263 C   0  0  0  0  0  0  0  0  0  0  0  0
   12.1097   15.2992  -18.4469 N   0  0  0  0  0  0  0  0  0  0  0  0
   12.6763   14.6467  -19.5118 C   0  0  0  0  0  0  0  0  0  0  0  0
   11.7019   13.8543  -20.0824 C   0  0  0  0  0  0  0  0  0  0  0  0
   10.4961   14.0428  -19.3446 C   0  0  0  0  0  0  0  0  0  0  0  0
   12.5774   15.9345  -17.8580 H   0  0  0  0  0  0  0  0  0  0  0  0
 11 12  1  0
 12 10  1  0
 10  7  1  0
  7  8  2  0
  7  9  2  0
  7  5  1  0
  1  5  1  1
  1  2  1  0
  2  3  1  0
  3 13  1  1
 13 14  1  0
 13 15  1  0
 15 16  1  0
 16 17  2  0
 17 18  1  0
 18 19  2  0
 19 20  1  0
 20 21  1  0
 21 22  2  0
 22 23  1  0
  3  4  1  0
  4  1  1  0
 23 15  2  0
 23 19  1  0
  5  6  1  0
 20 24  1  0
M  END
>  <Parent OID>  (17) 
1277

>  <minimizedAffinity>  (17) 
-7.41716

>  <CNNscore>  (17) 
0.1219213381

>  <CNNaffinity>  (17) 
4.4025559425

>  <CNN_VS>  (17) 
0.5367655158

>  <CNNaffinity_variance>  (17) 
0.9634544849

>  <poseStage>  (17) 
placement

>  <crystalRef>  (17) 
6bbu_fixed_protonated_minimized_smina_ligand.sdf

$$$$
1277_9_minimized
     RDKit          3D

 24 26  0  0  0  0  0  0  0  0999 V2000
    5.6816   11.6564  -19.7926 C   0  0  1  0  0  0  0  0  0  0  0  0
    6.3607   12.3935  -20.9694 C   0  0  0  0  0  0  0  0  0  0  0  0
    7.6640   11.6420  -20.5890 C   0  0  2  0  0  0  0  0  0  0  0  0
    7.0870   11.5604  -19.1536 C   0  0  0  0  0  0  0  0  0  0  0  0
    4.6363   12.4140  -19.0327 N   0  0  0  0  0  0  0  0  0  0  0  0
    4.3127   11.7889  -18.2946 H   0  0  0  0  0  0  0  0  0  0  0  0
    3.2416   13.0288  -19.7760 S   0  0  0  0  0  0  0  0  0  0  0  0
    3.3724   14.4664  -19.8398 O   0  0  0  0  0  0  0  0  0  0  0  0
    3.0511   12.2181  -20.9579 O   0  0  0  0  0  0  0  0  0  0  0  0
    2.0076   12.5885  -18.5585 C   0  0  0  0  0  0  0  0  0  0  0  0
    0.1877   13.4297  -16.9849 C   0  0  0  0  0  0  0  0  0  0  0  0
    1.2165   13.7873  -18.0464 C   0  0  0  0  0  0  0  0  0  0  0  0
    8.8491   12.4718  -20.6774 N   0  0  0  0  0  0  0  0  0  0  0  0
    9.0104   13.1495  -21.9724 C   0  0  0  0  0  0  0  0  0  0  0  0
    9.1016   13.4155  -19.6426 C   0  0  0  0  0  0  0  0  0  0  0  0
    8.0885   13.7793  -18.8104 N   0  0  0  0  0  0  0  0  0  0  0  0
    8.3346   14.6687  -17.8290 C   0  0  0  0  0  0  0  0  0  0  0  0
    9.4947   15.2737  -17.5285 N   0  0  0  0  0  0  0  0  0  0  0  0
   10.4760   14.8702  -18.3466 C   0  0  0  0  0  0  0  0  0  0  0  0
   11.7744   15.2944  -18.2666 N   0  0  0  0  0  0  0  0  0  0  0  0
   12.5259   14.6717  -19.2300 C   0  0  0  0  0  0  0  0  0  0  0  0
   11.6870   13.8378  -19.9398 C   0  0  0  0  0  0  0  0  0  0  0  0
   10.3753   13.9692  -19.3955 C   0  0  0  0  0  0  0  0  0  0  0  0
   12.1174   15.9484  -17.6156 H   0  0  0  0  0  0  0  0  0  0  0  0
 11 12  1  0
 12 10  1  0
 10  7  1  0
  7  8  2  0
  7  9  2  0
  7  5  1  0
  1  5  1  1
  1  2  1  0
  2  3  1  0
  3 13  1  1
 13 14  1  0
 13 15  1  0
 15 16  1  0
 16 17  2  0
 17 18  1  0
 18 19  2  0
 19 20  1  0
 20 21  1  0
 21 22  2  0
 22 23  1  0
  3  4  1  0
  4  1  1  0
 23 15  2  0
 23 19  1  0
  5  6  1  0
 20 24  1  0
M  END
>  <Parent OID>  (18) 
1277

>  <minimizedAffinity>  (18) 
-6.19550

>  <minimizedRMSD>  (18) 
1.61887

>  <CNNscore>  (18) 
0.0716358125

>  <CNNaffinity>  (18) 
4.8959560394

>  <CNN_VS>  (18) 
0.3507257998

>  <CNNaffinity_variance>  (18) 
0.2074136138

>  <poseStage>  (18) 
minimized

>  <crystalRef>  (18) 
6bbu_fixed_protonated_minimized_smina_ligand.sdf

$$$$
