
     RDKit          3D

 24 26  0  0  0  0  0  0  0  0999 V2000
   10.9641   15.4087  -15.4255 C   0  0  2  0  0  0  0  0  0  0  0  0
   10.8125   13.8931  -15.7673 C   0  0  0  0  0  0  0  0  0  0  0  0
    9.7873   14.3083  -16.8631 C   0  0  1  0  0  0  0  0  0  0  0  0
   10.5311   15.6817  -16.9111 C   0  0  0  0  0  0  0  0  0  0  0  0
    9.7868   13.4491  -18.0203 N   0  0  0  0  0  0  0  0  0  0  0  0
   10.6843   13.4788  -18.5020 H   0  0  0  0  0  0  0  0  0  0  0  0
    8.6974   12.3937  -19.9888 O   0  0  0  0  0  0  0  0  0  0  0  0
    8.7408   13.6719  -19.2819 S   0  0  0  0  0  0  0  0  0  0  0  0
    9.1795   14.8766  -19.9810 O   0  0  0  0  0  0  0  0  0  0  0  0
    7.1597   13.9353  -18.4696 C   0  0  0  0  0  0  0  0  0  0  0  0
    6.5849   15.3578  -18.6628 C   0  0  0  0  0  0  0  0  0  0  0  0
    5.1795   15.5254  -18.0598 C   0  0  0  0  0  0  0  0  0  0  0  0
   13.4218   15.8110  -16.0066 C   0  0  0  0  0  0  0  0  0  0  0  0
   12.3038   15.8335  -15.0237 N   0  0  0  0  0  0  0  0  0  0  0  0
   12.4294   15.9638  -11.2977 C   0  0  0  0  0  0  0  0  0  0  0  0
   11.9175   15.6914  -12.5336 C   0  0  0  0  0  0  0  0  0  0  0  0
   10.7001   14.9371  -12.3341 C   0  0  0  0  0  0  0  0  0  0  0  0
   10.5238   14.8101  -10.9696 C   0  0  0  0  0  0  0  0  0  0  0  0
   12.6408   16.1001  -13.6677 C   0  0  0  0  0  0  0  0  0  0  0  0
   13.7809   16.7811  -13.5085 N   0  0  0  0  0  0  0  0  0  0  0  0
   11.6030   15.4487  -10.3228 N   0  0  0  0  0  0  0  0  0  0  0  0
   13.5739   16.6243  -11.1330 N   0  0  0  0  0  0  0  0  0  0  0  0
   14.1925   17.0032  -12.2596 C   0  0  0  0  0  0  0  0  0  0  0  0
   11.7532   15.5358   -9.3289 H   0  0  0  0  0  0  0  0  0  0  0  0
 16 15  1  0
  2  1  1  0
  3  5  1  6
  3  2  1  0
 11 10  1  0
 12 11  1  0
 17 16  1  0
 18 17  2  0
  8  7  2  0
  8 10  1  0
  8  5  1  0
  9  8  2  0
  4  3  1  0
  4  1  1  0
 14 13  1  0
  1 14  1  6
 19 14  1  0
 19 16  2  0
 20 19  1  0
 21 18  1  0
 21 15  1  0
 22 15  2  0
 23 22  1  0
 23 20  2  0
  6  5  1  0
 24 21  1  0
M  END
>  <minimizedAffinity>  (1) 
-8.03756

>  <CNNscore>  (1) 
0.9921887517

>  <CNNaffinity>  (1) 
7.3748440742

>  <CNN_VS>  (1) 
7.3172373772

>  <CNNaffinity_variance>  (1) 
0.0734030232

>  <crystalRMSD>  (1) 
0.492

>  <crystalRef>  (1) 
6bbu_fixed_protonated_minimized_smina_ligand.sdf

>  <E_MMFF>  (1) 
-12.419

>  <E_UFF>  (1) 
287.373

$$$$

     RDKit          3D

 24 26  0  0  0  0  0  0  0  0999 V2000
   10.8259   15.3906  -15.4475 C   0  0  2  0  0  0  0  0  0  0  0  0
   10.5082   13.9373  -15.9205 C   0  0  0  0  0  0  0  0  0  0  0  0
    9.4942   14.5551  -16.9277 C   0  0  1  0  0  0  0  0  0  0  0  0
   10.3728   15.8465  -16.8814 C   0  0  0  0  0  0  0  0  0  0  0  0
    9.3662   13.8152  -18.1580 N   0  0  0  0  0  0  0  0  0  0  0  0
   10.2760   13.6540  -18.5877 H   0  0  0  0  0  0  0  0  0  0  0  0
    9.4971   14.8764  -20.4013 O   0  0  0  0  0  0  0  0  0  0  0  0
    8.5034   14.3912  -19.4461 S   0  0  0  0  0  0  0  0  0  0  0  0
    7.5050   15.3088  -18.9040 O   0  0  0  0  0  0  0  0  0  0  0  0
    7.7281   12.9167  -20.1199 C   0  0  0  0  0  0  0  0  0  0  0  0
    7.0057   12.0495  -19.0629 C   0  0  0  0  0  0  0  0  0  0  0  0
    5.4729   12.1105  -19.1806 C   0  0  0  0  0  0  0  0  0  0  0  0
   13.3170   15.3459  -16.0238 C   0  0  0  0  0  0  0  0  0  0  0  0
   12.2149   15.6404  -15.0671 N   0  0  0  0  0  0  0  0  0  0  0  0
   12.4562   15.9686  -11.3589 C   0  0  0  0  0  0  0  0  0  0  0  0
   11.9127   15.6187  -12.5614 C   0  0  0  0  0  0  0  0  0  0  0  0
   10.7236   14.8446  -12.2828 C   0  0  0  0  0  0  0  0  0  0  0  0
   10.5947   14.7846  -10.9085 C   0  0  0  0  0  0  0  0  0  0  0  0
   12.5877   15.9862  -13.7386 C   0  0  0  0  0  0  0  0  0  0  0  0
   13.7131   16.7038  -13.6529 N   0  0  0  0  0  0  0  0  0  0  0  0
   11.6760   15.4839  -10.3318 N   0  0  0  0  0  0  0  0  0  0  0  0
   13.5866   16.6662  -11.2668 N   0  0  0  0  0  0  0  0  0  0  0  0
   14.1582   17.0016  -12.4314 C   0  0  0  0  0  0  0  0  0  0  0  0
   11.8554   15.6267   -9.3493 H   0  0  0  0  0  0  0  0  0  0  0  0
 16 15  1  0
  2  1  1  0
  3  5  1  6
  3  2  1  0
 11 10  1  0
 12 11  1  0
 17 16  1  0
 18 17  2  0
  8  7  2  0
  8 10  1  0
  8  5  1  0
  9  8  2  0
  4  3  1  0
  4  1  1  0
 14 13  1  0
  1 14  1  6
 19 14  1  0
 19 16  2  0
 20 19  1  0
 21 18  1  0
 21 15  1  0
 22 15  2  0
 23 22  1  0
 23 20  2  0
  6  5  1  0
 24 21  1  0
M  END
>  <minimizedAffinity>  (2) 
-7.87068

>  <CNNscore>  (2) 
0.9626967907

>  <CNNaffinity>  (2) 
7.0425734520

>  <CNN_VS>  (2) 
6.7798628807

>  <CNNaffinity_variance>  (2) 
0.0069775875

>  <crystalRMSD>  (2) 
1.245

>  <crystalRef>  (2) 
6bbu_fixed_protonated_minimized_smina_ligand.sdf

>  <E_MMFF>  (2) 
-20.237

>  <E_UFF>  (2) 
254.031

$$$$

     RDKit          3D

 24 26  0  0  0  0  0  0  0  0999 V2000
   10.8176   15.3410  -15.4535 C   0  0  2  0  0  0  0  0  0  0  0  0
   10.4878   13.8339  -15.6921 C   0  0  0  0  0  0  0  0  0  0  0  0
    9.5134   14.2912  -16.8171 C   0  0  1  0  0  0  0  0  0  0  0  0
   10.4130   15.5614  -16.9558 C   0  0  0  0  0  0  0  0  0  0  0  0
    9.4069   13.3615  -17.9133 N   0  0  0  0  0  0  0  0  0  0  0  0
   10.2696   13.3294  -18.4547 H   0  0  0  0  0  0  0  0  0  0  0  0
    8.3039   14.9594  -19.4643 O   0  0  0  0  0  0  0  0  0  0  0  0
    8.2839   13.5409  -19.1141 S   0  0  0  0  0  0  0  0  0  0  0  0
    7.0508   12.9277  -18.6284 O   0  0  0  0  0  0  0  0  0  0  0  0
    8.9799   12.6006  -20.4781 C   0  0  0  0  0  0  0  0  0  0  0  0
    7.9644   12.2752  -21.5980 C   0  0  0  0  0  0  0  0  0  0  0  0
    8.5161   12.5484  -23.0079 C   0  0  0  0  0  0  0  0  0  0  0  0
   13.3088   15.3574  -16.0314 C   0  0  0  0  0  0  0  0  0  0  0  0
   12.1997   15.6319  -15.0768 N   0  0  0  0  0  0  0  0  0  0  0  0
   12.4333   16.0057  -11.3725 C   0  0  0  0  0  0  0  0  0  0  0  0
   11.8986   15.6293  -12.5709 C   0  0  0  0  0  0  0  0  0  0  0  0
   10.7297   14.8280  -12.2836 C   0  0  0  0  0  0  0  0  0  0  0  0
   10.6027   14.7794  -10.9087 C   0  0  0  0  0  0  0  0  0  0  0  0
   12.5638   16.0013  -13.7523 C   0  0  0  0  0  0  0  0  0  0  0  0
   13.6706   16.7483  -13.6747 N   0  0  0  0  0  0  0  0  0  0  0  0
   11.6659   15.5122  -10.3399 N   0  0  0  0  0  0  0  0  0  0  0  0
   13.5456   16.7329  -11.2884 N   0  0  0  0  0  0  0  0  0  0  0  0
   14.1081   17.0703  -12.4568 C   0  0  0  0  0  0  0  0  0  0  0  0
   11.8418   15.6700   -9.3591 H   0  0  0  0  0  0  0  0  0  0  0  0
 16 15  1  0
  2  1  1  0
  3  5  1  6
  3  2  1  0
 11 10  1  0
 12 11  1  0
 17 16  1  0
 18 17  2  0
  8  7  2  0
  8 10  1  0
  8  5  1  0
  9  8  2  0
  4  3  1  0
  4  1  1  0
 14 13  1  0
  1 14  1  6
 19 14  1  0
 19 16  2  0
 20 19  1  0
 21 18  1  0
 21 15  1  0
 22 15  2  0
 23 22  1  0
 23 20  2  0
  6  5  1  0
 24 21  1  0
M  END
>  <minimizedAffinity>  (3) 
-7.64929

>  <CNNscore>  (3) 
0.9609168768

>  <CNNaffinity>  (3) 
6.9843330383

>  <CNN_VS>  (3) 
6.7113633156

>  <CNNaffinity_variance>  (3) 
0.0061399625

>  <crystalRMSD>  (3) 
1.781

>  <crystalRef>  (3) 
6bbu_fixed_protonated_minimized_smina_ligand.sdf

>  <E_MMFF>  (3) 
-16.008

>  <E_UFF>  (3) 
251.808

$$$$

     RDKit          3D

 24 26  0  0  0  0  0  0  0  0999 V2000
   10.7594   15.3934  -15.3573 C   0  0  2  0  0  0  0  0  0  0  0  0
   10.3448   13.8901  -15.4299 C   0  0  0  0  0  0  0  0  0  0  0  0
    9.3714   14.2803  -16.5808 C   0  0  1  0  0  0  0  0  0  0  0  0
   10.3338   15.4775  -16.8676 C   0  0  0  0  0  0  0  0  0  0  0  0
    9.1913   13.2484  -17.5706 N   0  0  0  0  0  0  0  0  0  0  0  0
   10.0478   13.0918  -18.1002 H   0  0  0  0  0  0  0  0  0  0  0  0
    7.4174   14.6662  -18.5801 O   0  0  0  0  0  0  0  0  0  0  0  0
    8.0827   13.3823  -18.7907 S   0  0  0  0  0  0  0  0  0  0  0  0
    7.3027   12.1478  -18.7843 O   0  0  0  0  0  0  0  0  0  0  0  0
    9.1010   13.4961  -20.2670 C   0  0  0  0  0  0  0  0  0  0  0  0
   10.5991   13.2039  -20.0194 C   0  0  0  0  0  0  0  0  0  0  0  0
   11.5286   13.9900  -20.9600 C   0  0  0  0  0  0  0  0  0  0  0  0
   13.2251   15.3390  -16.0337 C   0  0  0  0  0  0  0  0  0  0  0  0
   12.1630   15.6455  -15.0363 N   0  0  0  0  0  0  0  0  0  0  0  0
   12.5497   16.0206  -11.3450 C   0  0  0  0  0  0  0  0  0  0  0  0
   11.9572   15.6600  -12.5208 C   0  0  0  0  0  0  0  0  0  0  0  0
   10.7729   14.9008  -12.1863 C   0  0  0  0  0  0  0  0  0  0  0  0
   10.6964   14.8603  -10.8074 C   0  0  0  0  0  0  0  0  0  0  0  0
   12.5897   16.0054  -13.7280 C   0  0  0  0  0  0  0  0  0  0  0  0
   13.7239   16.7135  -13.6953 N   0  0  0  0  0  0  0  0  0  0  0  0
   11.8053   15.5570  -10.2822 N   0  0  0  0  0  0  0  0  0  0  0  0
   13.6890   16.7088  -11.3058 N   0  0  0  0  0  0  0  0  0  0  0  0
   14.2182   17.0232  -12.4960 C   0  0  0  0  0  0  0  0  0  0  0  0
   12.0237   15.7112   -9.3093 H   0  0  0  0  0  0  0  0  0  0  0  0
 16 15  1  0
  2  1  1  0
  3  5  1  6
  3  2  1  0
 11 10  1  0
 12 11  1  0
 17 16  1  0
 18 17  2  0
  8  7  2  0
  8 10  1  0
  8  5  1  0
  9  8  2  0
  4  3  1  0
  4  1  1  0
 14 13  1  0
  1 14  1  6
 19 14  1  0
 19 16  2  0
 20 19  1  0
 21 18  1  0
 21 15  1  0
 22 15  2  0
 23 22  1  0
 23 20  2  0
  6  5  1  0
 24 21  1  0
M  END
>  <minimizedAffinity>  (4) 
-7.78622

>  <CNNscore>  (4) 
0.9487339854

>  <CNNaffinity>  (4) 
7.0213222504

>  <CNN_VS>  (4) 
6.6613669395

>  <CNNaffinity_variance>  (4) 
0.0270132739

>  <crystalRMSD>  (4) 
1.980

>  <crystalRef>  (4) 
6bbu_fixed_protonated_minimized_smina_ligand.sdf

>  <E_MMFF>  (4) 
23.024

>  <E_UFF>  (4) 
1327.839

$$$$

     RDKit          3D

 24 26  0  0  0  0  0  0  0  0999 V2000
   11.2795   14.5672  -15.0100 C   0  0  2  0  0  0  0  0  0  0  0  0
   10.2535   15.1330  -16.0415 C   0  0  0  0  0  0  0  0  0  0  0  0
   10.3612   13.7757  -16.7968 C   0  0  1  0  0  0  0  0  0  0  0  0
   10.7540   13.1449  -15.4222 C   0  0  0  0  0  0  0  0  0  0  0  0
    9.1428   13.3720  -17.4523 N   0  0  0  0  0  0  0  0  0  0  0  0
    8.9513   12.3830  -17.2979 H   0  0  0  0  0  0  0  0  0  0  0  0
   10.1499   12.8936  -19.6732 O   0  0  0  0  0  0  0  0  0  0  0  0
    8.9460   13.4823  -19.0907 S   0  0  0  0  0  0  0  0  0  0  0  0
    8.6024   14.8723  -19.3779 O   0  0  0  0  0  0  0  0  0  0  0  0
    7.5554   12.3920  -19.4168 C   0  0  0  0  0  0  0  0  0  0  0  0
    6.1781   13.0213  -19.1033 C   0  0  0  0  0  0  0  0  0  0  0  0
    5.0133   12.0288  -19.2618 C   0  0  0  0  0  0  0  0  0  0  0  0
    9.7131   14.9636  -13.0278 C   0  0  0  0  0  0  0  0  0  0  0  0
   11.0770   14.9864  -13.6244 N   0  0  0  0  0  0  0  0  0  0  0  0
   14.1024   16.8483  -12.4857 C   0  0  0  0  0  0  0  0  0  0  0  0
   13.2528   16.2386  -13.3633 C   0  0  0  0  0  0  0  0  0  0  0  0
   13.7631   16.4869  -14.6933 C   0  0  0  0  0  0  0  0  0  0  0  0
   14.9227   17.2241  -14.5487 C   0  0  0  0  0  0  0  0  0  0  0  0
   12.1071   15.5990  -12.8584 C   0  0  0  0  0  0  0  0  0  0  0  0
   11.9038   15.5644  -11.5369 N   0  0  0  0  0  0  0  0  0  0  0  0
   15.1338   17.4512  -13.1722 N   0  0  0  0  0  0  0  0  0  0  0  0
   13.8950   16.8338  -11.1705 N   0  0  0  0  0  0  0  0  0  0  0  0
   12.7965   16.1834  -10.7633 C   0  0  0  0  0  0  0  0  0  0  0  0
   15.9012   17.9494  -12.7469 H   0  0  0  0  0  0  0  0  0  0  0  0
 16 15  1  0
  2  1  1  0
  3  5  1  1
  3  2  1  0
 11 10  1  0
 12 11  1  0
 17 16  1  0
 18 17  2  0
  8  7  2  0
  8 10  1  0
  8  5  1  0
  9  8  2  0
  4  3  1  0
  4  1  1  0
 14 13  1  0
  1 14  1  1
 19 14  1  0
 19 16  2  0
 20 19  1  0
 21 18  1  0
 21 15  1  0
 22 15  2  0
 23 22  1  0
 23 20  2  0
  6  5  1  0
 24 21  1  0
M  END
>  <minimizedAffinity>  (5) 
-7.61683

>  <CNNscore>  (5) 
0.9462530613

>  <CNNaffinity>  (5) 
6.9380946159

>  <CNN_VS>  (5) 
6.5651931763

>  <CNNaffinity_variance>  (5) 
0.0736766756

>  <crystalRMSD>  (5) 
2.599

>  <crystalRef>  (5) 
6bbu_fixed_protonated_minimized_smina_ligand.sdf

>  <E_MMFF>  (5) 
-9.005

>  <E_UFF>  (5) 
276.604

$$$$

     RDKit          3D

 24 26  0  0  0  0  0  0  0  0999 V2000
   11.2805   14.5511  -14.9735 C   0  0  2  0  0  0  0  0  0  0  0  0
   10.2290   15.1052  -15.9856 C   0  0  0  0  0  0  0  0  0  0  0  0
   10.3605   13.7610  -16.7601 C   0  0  1  0  0  0  0  0  0  0  0  0
   10.7846   13.1219  -15.3986 C   0  0  0  0  0  0  0  0  0  0  0  0
    9.1446   13.3363  -17.4069 N   0  0  0  0  0  0  0  0  0  0  0  0
    9.1170   12.3230  -17.5114 H   0  0  0  0  0  0  0  0  0  0  0  0
    7.7905   14.9194  -18.7620 O   0  0  0  0  0  0  0  0  0  0  0  0
    8.7432   13.8249  -18.9352 S   0  0  0  0  0  0  0  0  0  0  0  0
    8.3489   12.6248  -19.6678 O   0  0  0  0  0  0  0  0  0  0  0  0
   10.2824   14.4964  -19.5747 C   0  0  0  0  0  0  0  0  0  0  0  0
   11.0188   13.5534  -20.5544 C   0  0  0  0  0  0  0  0  0  0  0  0
   10.7685   13.9057  -22.0309 C   0  0  0  0  0  0  0  0  0  0  0  0
    9.7268   14.8919  -12.9710 C   0  0  0  0  0  0  0  0  0  0  0  0
   11.0842   14.9471  -13.5802 N   0  0  0  0  0  0  0  0  0  0  0  0
   14.0963   16.8325  -12.4450 C   0  0  0  0  0  0  0  0  0  0  0  0
   13.2498   16.2174  -13.3218 C   0  0  0  0  0  0  0  0  0  0  0  0
   13.7547   16.4729  -14.6524 C   0  0  0  0  0  0  0  0  0  0  0  0
   14.9083   17.2197  -14.5091 C   0  0  0  0  0  0  0  0  0  0  0  0
   12.1109   15.5670  -12.8154 C   0  0  0  0  0  0  0  0  0  0  0  0
   11.9111   15.5278  -11.4935 N   0  0  0  0  0  0  0  0  0  0  0  0
   15.1208   17.4457  -13.1326 N   0  0  0  0  0  0  0  0  0  0  0  0
   13.8922   16.8135  -11.1293 N   0  0  0  0  0  0  0  0  0  0  0  0
   12.8004   16.1529  -10.7208 C   0  0  0  0  0  0  0  0  0  0  0  0
   15.8850   17.9496  -12.7082 H   0  0  0  0  0  0  0  0  0  0  0  0
 16 15  1  0
  2  1  1  0
  3  5  1  1
  3  2  1  0
 11 10  1  0
 12 11  1  0
 17 16  1  0
 18 17  2  0
  8  7  2  0
  8 10  1  0
  8  5  1  0
  9  8  2  0
  4  3  1  0
  4  1  1  0
 14 13  1  0
  1 14  1  1
 19 14  1  0
 19 16  2  0
 20 19  1  0
 21 18  1  0
 21 15  1  0
 22 15  2  0
 23 22  1  0
 23 20  2  0
  6  5  1  0
 24 21  1  0
M  END
>  <minimizedAffinity>  (6) 
-7.27584

>  <CNNscore>  (6) 
0.9447104335

>  <CNNaffinity>  (6) 
6.9879927635

>  <CNN_VS>  (6) 
6.6016297340

>  <CNNaffinity_variance>  (6) 
0.0126543567

>  <crystalRMSD>  (6) 
3.105

>  <crystalRef>  (6) 
6bbu_fixed_protonated_minimized_smina_ligand.sdf

>  <E_MMFF>  (6) 
9.665

>  <E_UFF>  (6) 
378.051

$$$$

     RDKit          3D

 24 26  0  0  0  0  0  0  0  0999 V2000
   10.4239   15.1768  -16.1762 C   0  0  2  0  0  0  0  0  0  0  0  0
    9.8558   13.7249  -16.0970 C   0  0  0  0  0  0  0  0  0  0  0  0
    9.0944   14.0190  -17.4229 C   0  0  1  0  0  0  0  0  0  0  0  0
   10.2153   15.0638  -17.7295 C   0  0  0  0  0  0  0  0  0  0  0  0
    8.9325   12.8666  -18.2731 N   0  0  0  0  0  0  0  0  0  0  0  0
    9.7690   12.6989  -18.8304 H   0  0  0  0  0  0  0  0  0  0  0  0
    6.8036   11.7841  -18.9603 O   0  0  0  0  0  0  0  0  0  0  0  0
    7.7561   12.7864  -19.4330 S   0  0  0  0  0  0  0  0  0  0  0  0
    8.4397   12.5970  -20.7094 O   0  0  0  0  0  0  0  0  0  0  0  0
    6.9790   14.4045  -19.3496 C   0  0  0  0  0  0  0  0  0  0  0  0
    5.4944   14.3656  -18.9188 C   0  0  0  0  0  0  0  0  0  0  0  0
    5.1155   15.5099  -17.9628 C   0  0  0  0  0  0  0  0  0  0  0  0
   12.9457   15.0507  -16.5824 C   0  0  0  0  0  0  0  0  0  0  0  0
   11.7917   15.3460  -15.6892 N   0  0  0  0  0  0  0  0  0  0  0  0
   13.3022   16.5137  -12.4843 C   0  0  0  0  0  0  0  0  0  0  0  0
   13.2199   16.2715  -13.8253 C   0  0  0  0  0  0  0  0  0  0  0  0
   14.3875   16.8649  -14.4382 C   0  0  0  0  0  0  0  0  0  0  0  0
   15.1372   17.4227  -13.4205 C   0  0  0  0  0  0  0  0  0  0  0  0
   12.0836   15.6093  -14.3221 C   0  0  0  0  0  0  0  0  0  0  0  0
   11.1402   15.1953  -13.4692 N   0  0  0  0  0  0  0  0  0  0  0  0
   14.4599   17.2055  -12.2019 N   0  0  0  0  0  0  0  0  0  0  0  0
   12.3569   16.1212  -11.6326 N   0  0  0  0  0  0  0  0  0  0  0  0
   11.3175   15.4741  -12.1771 C   0  0  0  0  0  0  0  0  0  0  0  0
   14.7589   17.4852  -11.2798 H   0  0  0  0  0  0  0  0  0  0  0  0
 16 15  1  0
  2  1  1  0
  3  5  1  6
  3  2  1  0
 11 10  1  0
 12 11  1  0
 17 16  1  0
 18 17  2  0
  8  7  2  0
  8 10  1  0
  8  5  1  0
  9  8  2  0
  4  3  1  0
  4  1  1  0
 14 13  1  0
  1 14  1  6
 19 14  1  0
 19 16  2  0
 20 19  1  0
 21 18  1  0
 21 15  1  0
 22 15  2  0
 23 22  1  0
 23 20  2  0
  6  5  1  0
 24 21  1  0
M  END
>  <minimizedAffinity>  (7) 
-7.52222

>  <CNNscore>  (7) 
0.8614184260

>  <CNNaffinity>  (7) 
6.7032456398

>  <CNN_VS>  (7) 
5.7742991447

>  <CNNaffinity_variance>  (7) 
0.0328462012

>  <crystalRMSD>  (7) 
2.504

>  <crystalRef>  (7) 
6bbu_fixed_protonated_minimized_smina_ligand.sdf

>  <E_MMFF>  (7) 
14.163

>  <E_UFF>  (7) 
581.940

$$$$

     RDKit          3D

 24 26  0  0  0  0  0  0  0  0999 V2000
   10.1332   14.8399  -15.8695 C   0  0  2  0  0  0  0  0  0  0  0  0
   10.0917   13.3643  -16.3772 C   0  0  0  0  0  0  0  0  0  0  0  0
    9.1895   13.8591  -17.5458 C   0  0  1  0  0  0  0  0  0  0  0  0
    9.8719   15.2530  -17.3629 C   0  0  0  0  0  0  0  0  0  0  0  0
    9.3676   13.1261  -18.7739 N   0  0  0  0  0  0  0  0  0  0  0  0
   10.3384   13.1538  -19.0824 H   0  0  0  0  0  0  0  0  0  0  0  0
    8.5929   12.3371  -20.9995 O   0  0  0  0  0  0  0  0  0  0  0  0
    8.5786   13.5385  -20.1678 S   0  0  0  0  0  0  0  0  0  0  0  0
    9.2007   14.7676  -20.6523 O   0  0  0  0  0  0  0  0  0  0  0  0
    6.8942   13.8394  -19.6187 C   0  0  0  0  0  0  0  0  0  0  0  0
    6.1326   12.5598  -19.2019 C   0  0  0  0  0  0  0  0  0  0  0  0
    4.6796   12.8360  -18.7780 C   0  0  0  0  0  0  0  0  0  0  0  0
   12.6174   15.4018  -16.0998 C   0  0  0  0  0  0  0  0  0  0  0  0
   11.3940   15.2627  -15.2627 N   0  0  0  0  0  0  0  0  0  0  0  0
   12.5733   16.1072  -11.8258 C   0  0  0  0  0  0  0  0  0  0  0  0
   12.6141   16.0217  -13.1877 C   0  0  0  0  0  0  0  0  0  0  0  0
   13.7952   16.7324  -13.6244 C   0  0  0  0  0  0  0  0  0  0  0  0
   14.4286   17.1977  -12.4881 C   0  0  0  0  0  0  0  0  0  0  0  0
   11.5586   15.3750  -13.8543 C   0  0  0  0  0  0  0  0  0  0  0  0
   10.5715   14.8234  -13.1400 N   0  0  0  0  0  0  0  0  0  0  0  0
   13.6660   16.8095  -11.3661 N   0  0  0  0  0  0  0  0  0  0  0  0
   11.5832   15.5770  -11.1104 N   0  0  0  0  0  0  0  0  0  0  0  0
   10.6274   14.9551  -11.8141 C   0  0  0  0  0  0  0  0  0  0  0  0
   13.8733   16.9908  -10.3955 H   0  0  0  0  0  0  0  0  0  0  0  0
 16 15  1  0
  2  1  1  0
  3  5  1  6
  3  2  1  0
 11 10  1  0
 12 11  1  0
 17 16  1  0
 18 17  2  0
  8  7  2  0
  8 10  1  0
  8  5  1  0
  9  8  2  0
  4  3  1  0
  4  1  1  0
 14 13  1  0
  1 14  1  6
 19 14  1  0
 19 16  2  0
 20 19  1  0
 21 18  1  0
 21 15  1  0
 22 15  2  0
 23 22  1  0
 23 20  2  0
  6  5  1  0
 24 21  1  0
M  END
>  <minimizedAffinity>  (8) 
-7.48403

>  <CNNscore>  (8) 
0.7429572344

>  <CNNaffinity>  (8) 
6.5679306984

>  <CNN_VS>  (8) 
4.8796916008

>  <CNNaffinity_variance>  (8) 
0.0601886772

>  <crystalRMSD>  (8) 
2.269

>  <crystalRef>  (8) 
6bbu_fixed_protonated_minimized_smina_ligand.sdf

>  <E_MMFF>  (8) 
-7.990

>  <E_UFF>  (8) 
293.622

$$$$

     RDKit          3D

 24 26  0  0  0  0  0  0  0  0999 V2000
   12.7524   16.1741  -16.3868 C   0  0  2  0  0  0  0  0  0  0  0  0
   11.1993   16.1713  -16.2293 C   0  0  0  0  0  0  0  0  0  0  0  0
   11.1385   15.2409  -17.4763 C   0  0  1  0  0  0  0  0  0  0  0  0
   12.5808   14.7797  -17.0905 C   0  0  0  0  0  0  0  0  0  0  0  0
   10.0497   14.2970  -17.4502 N   0  0  0  0  0  0  0  0  0  0  0  0
   10.3621   13.3827  -17.1263 H   0  0  0  0  0  0  0  0  0  0  0  0
    8.7467   15.1421  -19.3902 O   0  0  0  0  0  0  0  0  0  0  0  0
    9.2111   13.8821  -18.8141 S   0  0  0  0  0  0  0  0  0  0  0  0
    8.2443   12.8625  -18.4165 O   0  0  0  0  0  0  0  0  0  0  0  0
   10.4767   13.1901  -19.8858 C   0  0  0  0  0  0  0  0  0  0  0  0
   10.9941   14.1735  -20.9611 C   0  0  0  0  0  0  0  0  0  0  0  0
   10.2365   14.0589  -22.2953 C   0  0  0  0  0  0  0  0  0  0  0  0
   14.9949   16.0733  -15.1616 C   0  0  0  0  0  0  0  0  0  0  0  0
   13.5127   16.2117  -15.1389 N   0  0  0  0  0  0  0  0  0  0  0  0
   11.2636   15.5415  -12.2391 C   0  0  0  0  0  0  0  0  0  0  0  0
   11.6874   15.5249  -13.5367 C   0  0  0  0  0  0  0  0  0  0  0  0
   10.7549   14.7065  -14.2794 C   0  0  0  0  0  0  0  0  0  0  0  0
    9.7898   14.2833  -13.3858 C   0  0  0  0  0  0  0  0  0  0  0  0
   12.8812   16.1912  -13.8645 C   0  0  0  0  0  0  0  0  0  0  0  0
   13.5428   16.8583  -12.9126 N   0  0  0  0  0  0  0  0  0  0  0  0
   10.1076   14.8024  -12.1128 N   0  0  0  0  0  0  0  0  0  0  0  0
   11.9284   16.1877  -11.2833 N   0  0  0  0  0  0  0  0  0  0  0  0
   13.0424   16.8198  -11.6770 C   0  0  0  0  0  0  0  0  0  0  0  0
    9.5883   14.6785  -11.2567 H   0  0  0  0  0  0  0  0  0  0  0  0
 16 15  1  0
  2  1  1  0
  3  5  1  1
  3  2  1  0
 11 10  1  0
 12 11  1  0
 17 16  1  0
 18 17  2  0
  8  7  2  0
  8 10  1  0
  8  5  1  0
  9  8  2  0
  4  3  1  0
  4  1  1  0
 14 13  1  0
  1 14  1  1
 19 14  1  0
 19 16  2  0
 20 19  1  0
 21 18  1  0
 21 15  1  0
 22 15  2  0
 23 22  1  0
 23 20  2  0
  6  5  1  0
 24 21  1  0
M  END
>  <minimizedAffinity>  (9) 
-5.83167

>  <CNNscore>  (9) 
0.6033022404

>  <CNNaffinity>  (9) 
6.5866122246

>  <CNN_VS>  (9) 
3.9737179279

>  <CNNaffinity_variance>  (9) 
0.0023438861

>  <crystalRMSD>  (9) 
2.387

>  <crystalRef>  (9) 
6bbu_fixed_protonated_minimized_smina_ligand.sdf

>  <E_MMFF>  (9) 
138.516

>  <E_UFF>  (9) 
3024.106

$$$$
