D7D
     RDKit          3D

 44 46  0  0  0  0  0  0  0  0999 V2000
   12.6630   16.0180  -11.1730 C   0  0  0  0  0  0  0  0  0  0  0  0
   12.0890   15.5780  -12.4050 C   0  0  0  0  0  0  0  0  0  0  0  0
    9.9950   13.0960  -17.7930 N   0  0  0  0  0  0  0  0  0  0  0  0
   11.1700   14.9550  -15.1420 C   0  0  2  0  0  0  0  0  0  0  0  0
   10.9630   13.4330  -15.4390 C   0  0  1  0  0  0  0  0  0  0  0  0
    9.9530   13.8350  -16.5460 C   0  0  1  0  0  0  0  0  0  0  0  0
    7.5160   13.3400  -18.6750 C   0  0  1  0  0  0  0  0  0  0  0  0
    6.6860   14.6230  -18.8300 C   0  0  1  0  0  0  0  0  0  0  0  0
    5.2150   14.3800  -18.5510 C   0  0  1  0  0  0  0  0  0  0  0  0
   13.4870   15.5130  -15.9390 C   0  0  1  0  0  0  0  0  0  0  0  0
   10.8570   14.9300  -12.0690 C   0  0  0  0  0  0  0  0  0  0  0  0
   10.7140   14.9830  -10.6980 C   0  0  0  0  0  0  0  0  0  0  0  0
    9.4540   12.5830  -20.1220 O   0  0  0  0  0  0  0  0  0  0  0  0
    9.1420   13.5410  -19.1220 S   0  0  2  0  0  0  0  0  0  0  0  0
    9.3830   14.9140  -19.3700 O   0  0  0  0  0  0  0  0  0  0  0  0
   10.5430   15.2820  -16.5290 C   0  0  2  0  0  0  0  0  0  0  0  0
   12.5180   15.3790  -14.8410 N   0  0  0  0  0  0  0  0  0  0  0  0
   12.8530   15.8370  -13.5710 C   0  0  0  0  0  0  0  0  0  0  0  0
   14.0310   16.5360  -13.4770 N   0  0  0  0  0  0  0  0  0  0  0  0
   11.8180   15.6470  -10.1380 N   0  0  0  0  0  0  0  0  0  0  0  0
   13.8600   16.6850  -11.0340 N   0  0  0  0  0  0  0  0  0  0  0  0
   14.4500   16.9020  -12.2290 C   0  0  0  0  0  0  0  0  0  0  0  0
   10.9836   13.0815  -18.0816 H   0  0  0  0  0  0  0  0  0  0  0  0
   10.7600   15.4386  -14.2431 H   0  0  0  0  0  0  0  0  0  0  0  0
   11.8604   12.9142  -15.8072 H   0  0  0  0  0  0  0  0  0  0  0  0
   10.6871   12.7270  -14.6419 H   0  0  0  0  0  0  0  0  0  0  0  0
    8.8736   13.6745  -16.4077 H   0  0  0  0  0  0  0  0  0  0  0  0
    7.4788   13.0239  -17.6220 H   0  0  0  0  0  0  0  0  0  0  0  0
    7.0818   12.5850  -19.3470 H   0  0  0  0  0  0  0  0  0  0  0  0
    7.0623   15.3779  -18.1239 H   0  0  0  0  0  0  0  0  0  0  0  0
    6.7839   14.9698  -19.8693 H   0  0  0  0  0  0  0  0  0  0  0  0
    5.0476   14.3524  -17.4642 H   0  0  0  0  0  0  0  0  0  0  0  0
    4.6189   15.1918  -18.9933 H   0  0  0  0  0  0  0  0  0  0  0  0
    4.9117   13.4196  -18.9933 H   0  0  0  0  0  0  0  0  0  0  0  0
   14.4957   15.6525  -15.5229 H   0  0  0  0  0  0  0  0  0  0  0  0
   13.4681   14.6037  -16.5577 H   0  0  0  0  0  0  0  0  0  0  0  0
   13.2221   16.3831  -16.5577 H   0  0  0  0  0  0  0  0  0  0  0  0
   10.1510   14.4720  -12.7774 H   0  0  0  0  0  0  0  0  0  0  0  0
    9.8668   14.5694  -10.1312 H   0  0  0  0  0  0  0  0  0  0  0  0
   11.2752   15.4857  -17.3242 H   0  0  0  0  0  0  0  0  0  0  0  0
    9.9021   16.1641  -16.6747 H   0  0  0  0  0  0  0  0  0  0  0  0
   11.9725   15.8266   -9.1356 H   0  0  0  0  0  0  0  0  0  0  0  0
   14.2560   16.9815  -10.1306 H   0  0  0  0  0  0  0  0  0  0  0  0
   15.4025   17.4510  -12.1927 H   0  0  0  0  0  0  0  0  0  0  0  0
  2  1  2  0
  5  4  1  0
  6  3  1  0
  6  5  1  0
  8  7  1  0
  9  8  1  0
 11  2  1  0
 12 11  2  0
 14 13  2  0
 14  7  1  0
 14  3  1  1
 15 14  2  0
 16  6  1  0
 16  4  1  0
 17 10  1  0
 17  4  1  0
 18 17  1  0
 18  2  1  0
 19 18  2  0
 20 12  1  0
 20  1  1  0
 21  1  1  0
 22 21  2  0
 22 19  1  0
  3 23  1  0
  4 24  1  1
  5 25  1  6
  5 26  1  0
  6 27  1  1
  7 28  1  1
  7 29  1  0
  8 30  1  1
  8 31  1  0
  9 32  1  1
  9 33  1  0
  9 34  1  0
 10 35  1  1
 10 36  1  0
 10 37  1  0
 11 38  1  0
 12 39  1  0
 16 40  1  6
 16 41  1  0
 20 42  1  0
 21 43  1  0
 22 44  1  0
M  CHG  1  21   1
M  END
$$$$
